MODEL 1
REMARK VINA RESULT:      -5.5      0.000      0.000
REMARK  Name = min_compound9.pdb
REMARK  0 active torsions:
REMARK  status: ('A' for Active; 'I' for Inactive)
REMARK                            x       y       z     vdW  Elec       q    Type
REMARK                         _______ _______ _______ _____ _____    ______ ____
ROOT
ATOM      1  C   UNL     1     -11.344  -1.065 -16.246  0.00  0.00    +0.023 A 
ATOM      2  C   UNL     1     -10.162  -0.701 -15.620  0.00  0.00    +0.113 A 
ATOM      3  N   UNL     1      -9.743   0.577 -15.489  0.00  0.00    -0.237 NA
ATOM      4  C   UNL     1     -10.543   1.530 -16.009  0.00  0.00    +0.167 A 
ATOM      5  N   UNL     1     -10.109   2.836 -15.867  0.00  0.00    -0.265 N 
ATOM      6  H   UNL     1      -9.237   2.994 -15.386  0.00  0.00    +0.156 HD
ATOM      7  C   UNL     1     -10.812   3.895 -16.352  0.00  0.00    +0.256 C 
ATOM      8  O   UNL     1     -10.416   5.050 -16.216  0.00  0.00    -0.272 OA
ATOM      9  C   UNL     1     -12.113   3.550 -17.082  0.00  0.00    +0.325 C 
ATOM     10  O   UNL     1     -12.576   2.212 -17.183  0.00  0.00    -0.479 OA
ATOM     11  C   UNL     1     -11.746   1.267 -16.655  0.00  0.00    +0.161 A 
ATOM     12  C   UNL     1     -12.149  -0.059 -16.772  0.00  0.00    +0.051 A 
ENDROOT
TORSDOF 0
ENDMDL
MODEL 2
REMARK VINA RESULT:      -5.3      1.995      2.793
REMARK  Name = min_compound9.pdb
REMARK  0 active torsions:
REMARK  status: ('A' for Active; 'I' for Inactive)
REMARK                            x       y       z     vdW  Elec       q    Type
REMARK                         _______ _______ _______ _____ _____    ______ ____
ROOT
ATOM      1  C   UNL     1      -9.955   0.259 -15.539  0.00  0.00    +0.023 A 
ATOM      2  C   UNL     1     -10.049  -0.559 -16.653  0.00  0.00    +0.113 A 
ATOM      3  N   UNL     1     -10.809  -0.274 -17.735  0.00  0.00    -0.237 NA
ATOM      4  C   UNL     1     -11.504   0.881 -17.695  0.00  0.00    +0.167 A 
ATOM      5  N   UNL     1     -12.276   1.167 -18.807  0.00  0.00    -0.265 N 
ATOM      6  H   UNL     1     -12.266   0.508 -19.570  0.00  0.00    +0.156 HD
ATOM      7  C   UNL     1     -13.034   2.293 -18.898  0.00  0.00    +0.256 C 
ATOM      8  O   UNL     1     -13.713   2.536 -19.893  0.00  0.00    -0.272 OA
ATOM      9  C   UNL     1     -12.993   3.221 -17.681  0.00  0.00    +0.325 C 
ATOM     10  O   UNL     1     -12.164   2.944 -16.562  0.00  0.00    -0.479 OA
ATOM     11  C   UNL     1     -11.476   1.768 -16.624  0.00  0.00    +0.161 A 
ATOM     12  C   UNL     1     -10.684   1.445 -15.528  0.00  0.00    +0.051 A 
ENDROOT
TORSDOF 0
ENDMDL
MODEL 3
REMARK VINA RESULT:      -5.3      1.485      1.538
REMARK  Name = min_compound9.pdb
REMARK  0 active torsions:
REMARK  status: ('A' for Active; 'I' for Inactive)
REMARK                            x       y       z     vdW  Elec       q    Type
REMARK                         _______ _______ _______ _____ _____    ______ ____
ROOT
ATOM      1  C   UNL     1      -9.847  -0.969 -17.184  0.00  0.00    +0.023 A 
ATOM      2  C   UNL     1      -9.465  -0.472 -15.948  0.00  0.00    +0.113 A 
ATOM      3  N   UNL     1     -10.023   0.615 -15.369  0.00  0.00    -0.237 NA
ATOM      4  C   UNL     1     -11.005   1.229 -16.061  0.00  0.00    +0.167 A 
ATOM      5  N   UNL     1     -11.573   2.338 -15.460  0.00  0.00    -0.265 N 
ATOM      6  H   UNL     1     -11.228   2.612 -14.553  0.00  0.00    +0.156 HD
ATOM      7  C   UNL     1     -12.565   3.058 -16.049  0.00  0.00    +0.256 C 
ATOM      8  O   UNL     1     -13.063   4.040 -15.502  0.00  0.00    -0.272 OA
ATOM      9  C   UNL     1     -13.007   2.572 -17.432  0.00  0.00    +0.325 C 
ATOM     10  O   UNL     1     -12.452   1.407 -18.023  0.00  0.00    -0.479 OA
ATOM     11  C   UNL     1     -11.458   0.808 -17.307  0.00  0.00    +0.161 A 
ATOM     12  C   UNL     1     -10.863  -0.315 -17.873  0.00  0.00    +0.051 A 
ENDROOT
TORSDOF 0
ENDMDL
MODEL 4
REMARK VINA RESULT:      -5.2      1.844      3.719
REMARK  Name = min_compound9.pdb
REMARK  0 active torsions:
REMARK  status: ('A' for Active; 'I' for Inactive)
REMARK                            x       y       z     vdW  Elec       q    Type
REMARK                         _______ _______ _______ _____ _____    ______ ____
ROOT
ATOM      1  C   UNL     1     -12.962   3.838 -16.293  0.00  0.00    +0.023 A 
ATOM      2  C   UNL     1     -11.723   4.167 -15.768  0.00  0.00    +0.113 A 
ATOM      3  N   UNL     1     -10.736   3.270 -15.548  0.00  0.00    -0.237 NA
ATOM      4  C   UNL     1     -11.005   1.988 -15.868  0.00  0.00    +0.167 A 
ATOM      5  N   UNL     1      -9.988   1.076 -15.643  0.00  0.00    -0.265 N 
ATOM      6  H   UNL     1      -9.120   1.422 -15.266  0.00  0.00    +0.156 HD
ATOM      7  C   UNL     1     -10.126  -0.250 -15.912  0.00  0.00    +0.256 C 
ATOM      8  O   UNL     1      -9.214  -1.048 -15.710  0.00  0.00    -0.272 OA
ATOM      9  C   UNL     1     -11.488  -0.677 -16.466  0.00  0.00    +0.325 C 
ATOM     10  O   UNL     1     -12.511   0.269 -16.736  0.00  0.00    -0.479 OA
ATOM     11  C   UNL     1     -12.216   1.557 -16.399  0.00  0.00    +0.161 A 
ATOM     12  C   UNL     1     -13.210   2.507 -16.614  0.00  0.00    +0.051 A 
ENDROOT
TORSDOF 0
ENDMDL
MODEL 5
REMARK VINA RESULT:      -5.1      2.397      4.167
REMARK  Name = min_compound9.pdb
REMARK  0 active torsions:
REMARK  status: ('A' for Active; 'I' for Inactive)
REMARK                            x       y       z     vdW  Elec       q    Type
REMARK                         _______ _______ _______ _____ _____    ______ ____
ROOT
ATOM      1  C   UNL     1     -13.356   3.674 -16.624  0.00  0.00    +0.023 A 
ATOM      2  C   UNL     1     -13.613   3.100 -17.859  0.00  0.00    +0.113 A 
ATOM      3  N   UNL     1     -12.967   2.011 -18.332  0.00  0.00    -0.237 NA
ATOM      4  C   UNL     1     -12.022   1.476 -17.533  0.00  0.00    +0.167 A 
ATOM      5  N   UNL     1     -11.367   0.360 -18.023  0.00  0.00    -0.265 N 
ATOM      6  H   UNL     1     -11.638   0.016 -18.932  0.00  0.00    +0.156 HD
ATOM      7  C   UNL     1     -10.387  -0.274 -17.326  0.00  0.00    +0.256 C 
ATOM      8  O   UNL     1      -9.816  -1.267 -17.773  0.00  0.00    -0.272 OA
ATOM      9  C   UNL     1     -10.038   0.335 -15.966  0.00  0.00    +0.325 C 
ATOM     10  O   UNL     1     -10.745   1.452 -15.449  0.00  0.00    -0.479 OA
ATOM     11  C   UNL     1     -11.690   1.978 -16.278  0.00  0.00    +0.161 A 
ATOM     12  C   UNL     1     -12.376   3.098 -15.821  0.00  0.00    +0.051 A 
ENDROOT
TORSDOF 0
ENDMDL
MODEL 6
REMARK VINA RESULT:      -5.1      1.802      2.275
REMARK  Name = min_compound9.pdb
REMARK  0 active torsions:
REMARK  status: ('A' for Active; 'I' for Inactive)
REMARK                            x       y       z     vdW  Elec       q    Type
REMARK                         _______ _______ _______ _____ _____    ______ ____
ROOT
ATOM      1  C   UNL     1     -10.552  -0.218 -16.071  0.00  0.00    +0.023 A 
ATOM      2  C   UNL     1     -11.426  -0.283 -17.145  0.00  0.00    +0.113 A 
ATOM      3  N   UNL     1     -11.931   0.804 -17.770  0.00  0.00    -0.237 NA
ATOM      4  C   UNL     1     -11.544   2.006 -17.297  0.00  0.00    +0.167 A 
ATOM      5  N   UNL     1     -12.063   3.113 -17.944  0.00  0.00    -0.265 N 
ATOM      6  H   UNL     1     -12.685   2.956 -18.723  0.00  0.00    +0.156 HD
ATOM      7  C   UNL     1     -11.764   4.385 -17.567  0.00  0.00    +0.256 C 
ATOM      8  O   UNL     1     -12.230   5.360 -18.153  0.00  0.00    -0.272 OA
ATOM      9  C   UNL     1     -10.826   4.518 -16.364  0.00  0.00    +0.325 C 
ATOM     10  O   UNL     1     -10.261   3.378 -15.733  0.00  0.00    -0.479 OA
ATOM     11  C   UNL     1     -10.673   2.175 -16.226  0.00  0.00    +0.161 A 
ATOM     12  C   UNL     1     -10.170   1.036 -15.606  0.00  0.00    +0.051 A 
ENDROOT
TORSDOF 0
ENDMDL
MODEL 7
REMARK VINA RESULT:      -4.9     11.588     12.115
REMARK  Name = min_compound9.pdb
REMARK  0 active torsions:
REMARK  status: ('A' for Active; 'I' for Inactive)
REMARK                            x       y       z     vdW  Elec       q    Type
REMARK                         _______ _______ _______ _____ _____    ______ ____
ROOT
ATOM      1  C   UNL     1     -13.737   0.477  -3.062  0.00  0.00    +0.023 A 
ATOM      2  C   UNL     1     -14.380  -0.745  -2.943  0.00  0.00    +0.113 A 
ATOM      3  N   UNL     1     -15.089  -1.323  -3.938  0.00  0.00    -0.237 NA
ATOM      4  C   UNL     1     -15.156  -0.645  -5.102  0.00  0.00    +0.167 A 
ATOM      5  N   UNL     1     -15.881  -1.245  -6.116  0.00  0.00    -0.265 N 
ATOM      6  H   UNL     1     -16.303  -2.142  -5.928  0.00  0.00    +0.156 HD
ATOM      7  C   UNL     1     -16.039  -0.669  -7.338  0.00  0.00    +0.256 C 
ATOM      8  O   UNL     1     -16.683  -1.215  -8.232  0.00  0.00    -0.272 OA
ATOM      9  C   UNL     1     -15.375   0.699  -7.518  0.00  0.00    +0.325 C 
ATOM     10  O   UNL     1     -14.595   1.288  -6.489  0.00  0.00    -0.479 OA
ATOM     11  C   UNL     1     -14.547   0.586  -5.320  0.00  0.00    +0.161 A 
ATOM     12  C   UNL     1     -13.824   1.152  -4.276  0.00  0.00    +0.051 A 
ENDROOT
TORSDOF 0
ENDMDL
MODEL 8
REMARK VINA RESULT:      -4.7      2.201      2.936
REMARK  Name = min_compound9.pdb
REMARK  0 active torsions:
REMARK  status: ('A' for Active; 'I' for Inactive)
REMARK                            x       y       z     vdW  Elec       q    Type
REMARK                         _______ _______ _______ _____ _____    ______ ____
ROOT
ATOM      1  C   UNL     1      -9.801   0.836 -17.427  0.00  0.00    +0.023 A 
ATOM      2  C   UNL     1     -10.758  -0.163 -17.336  0.00  0.00    +0.113 A 
ATOM      3  N   UNL     1     -12.044   0.056 -16.981  0.00  0.00    -0.237 NA
ATOM      4  C   UNL     1     -12.383   1.332 -16.704  0.00  0.00    +0.167 A 
ATOM      5  N   UNL     1     -13.702   1.549 -16.345  0.00  0.00    -0.265 N 
ATOM      6  H   UNL     1     -14.320   0.753 -16.318  0.00  0.00    +0.156 HD
ATOM      7  C   UNL     1     -14.178   2.783 -16.031  0.00  0.00    +0.256 C 
ATOM      8  O   UNL     1     -15.353   2.962 -15.716  0.00  0.00    -0.272 OA
ATOM      9  C   UNL     1     -13.156   3.923 -16.084  0.00  0.00    +0.325 C 
ATOM     10  O   UNL     1     -11.817   3.701 -16.498  0.00  0.00    -0.479 OA
ATOM     11  C   UNL     1     -11.497   2.403 -16.766  0.00  0.00    +0.161 A 
ATOM     12  C   UNL     1     -10.182   2.142 -17.136  0.00  0.00    +0.051 A 
ENDROOT
TORSDOF 0
ENDMDL
MODEL 9
REMARK VINA RESULT:      -4.7     11.832     12.391
REMARK  Name = min_compound9.pdb
REMARK  0 active torsions:
REMARK  status: ('A' for Active; 'I' for Inactive)
REMARK                            x       y       z     vdW  Elec       q    Type
REMARK                         _______ _______ _______ _____ _____    ______ ____
ROOT
ATOM      1  C   UNL     1     -13.737   2.312  -3.488  0.00  0.00    +0.023 A 
ATOM      2  C   UNL     1     -14.925   2.940  -3.827  0.00  0.00    +0.113 A 
ATOM      3  N   UNL     1     -15.827   2.426  -4.692  0.00  0.00    -0.237 NA
ATOM      4  C   UNL     1     -15.524   1.232  -5.241  0.00  0.00    +0.167 A 
ATOM      5  N   UNL     1     -16.455   0.712  -6.123  0.00  0.00    -0.265 N 
ATOM      6  H   UNL     1     -17.293   1.246  -6.293  0.00  0.00    +0.156 HD
ATOM      7  C   UNL     1     -16.274  -0.479  -6.755  0.00  0.00    +0.256 C 
ATOM      8  O   UNL     1     -17.110  -0.931  -7.533  0.00  0.00    -0.272 OA
ATOM      9  C   UNL     1     -14.962  -1.204  -6.442  0.00  0.00    +0.325 C 
ATOM     10  O   UNL     1     -14.033  -0.687  -5.502  0.00  0.00    -0.479 OA
ATOM     11  C   UNL     1     -14.359   0.524  -4.966  0.00  0.00    +0.161 A 
ATOM     12  C   UNL     1     -13.453   1.080  -4.070  0.00  0.00    +0.051 A 
ENDROOT
TORSDOF 0
ENDMDL
