MODEL 1
REMARK VINA RESULT:      -5.5      0.000      0.000
REMARK  Name = min_compound99.pdb
REMARK  3 active torsions:
REMARK  status: ('A' for Active; 'I' for Inactive)
REMARK    1  A    between atoms: _8  and  _11
REMARK    2  A    between atoms: _9  and  _13
REMARK    3  A    between atoms: _10  and  _12
REMARK                            x       y       z     vdW  Elec       q    Type
REMARK                         _______ _______ _______ _____ _____    ______ ____
ROOT
ATOM      1  N   UNL     1     -10.082   1.767 -17.397  0.00  0.00    +0.006 NA
ATOM      2  C   UNL     1     -11.119   2.531 -17.229  0.00  0.00    +0.391 C 
ATOM      3  C   UNL     1     -12.476   1.978 -16.800  0.00  0.00    +0.137 C 
ATOM      4  C   UNL     1     -12.521   0.526 -16.620  0.00  0.00    +0.099 C 
ATOM      5  C   UNL     1     -11.308  -0.204 -16.825  0.00  0.00    +0.078 C 
ATOM      6  N   UNL     1     -13.512   2.738 -16.613  0.00  0.00    -0.269 NA
ATOM      7  C   UNL     1     -13.310   4.082 -16.824  0.00  0.00    +0.172 C 
ATOM      8  C   UNL     1     -14.456   5.006 -16.580  0.00  0.00    +0.041 C 
ATOM      9  C   UNL     1     -11.981   4.617 -17.269  0.00  0.00    +0.152 C 
ATOM     10  C   UNL     1     -11.843   6.102 -17.509  0.00  0.00    +0.093 C 
ATOM     11  N   UNL     1     -10.937   3.875 -17.467  0.00  0.00    -0.042 NA
ATOM     12  C   UNL     1     -10.166   0.416 -17.181  0.00  0.00    +0.311 C 
ENDROOT
BRANCH  12  13
ATOM     13  N   UNL     1      -9.023  -0.330 -17.354  0.00  0.00    -0.247 N 
ATOM     14  H   UNL     1      -8.366   0.216 -17.909  0.00  0.00    +0.288 HD
ATOM     15  H   UNL     1      -9.198  -1.244 -17.755  0.00  0.00    +0.288 HD
ENDBRANCH  12  13
TORSDOF 1
ENDMDL
MODEL 2
REMARK VINA RESULT:      -5.5      1.137      4.430
REMARK  Name = min_compound99.pdb
REMARK  3 active torsions:
REMARK  status: ('A' for Active; 'I' for Inactive)
REMARK    1  A    between atoms: _8  and  _11
REMARK    2  A    between atoms: _9  and  _13
REMARK    3  A    between atoms: _10  and  _12
REMARK                            x       y       z     vdW  Elec       q    Type
REMARK                         _______ _______ _______ _____ _____    ______ ____
ROOT
ATOM      1  N   UNL     1     -11.041   4.313 -17.512  0.00  0.00    +0.006 NA
ATOM      2  C   UNL     1     -11.202   3.066 -17.190  0.00  0.00    +0.391 C 
ATOM      3  C   UNL     1     -12.513   2.537 -16.615  0.00  0.00    +0.137 C 
ATOM      4  C   UNL     1     -13.559   3.545 -16.433  0.00  0.00    +0.099 C 
ATOM      5  C   UNL     1     -13.262   4.885 -16.837  0.00  0.00    +0.078 C 
ATOM      6  N   UNL     1     -12.687   1.287 -16.308  0.00  0.00    -0.269 NA
ATOM      7  C   UNL     1     -11.610   0.463 -16.536  0.00  0.00    +0.172 C 
ATOM      8  C   UNL     1     -11.771  -0.991 -16.242  0.00  0.00    +0.041 C 
ATOM      9  C   UNL     1     -10.315   0.993 -17.078  0.00  0.00    +0.152 C 
ATOM     10  C   UNL     1      -9.167   0.032 -17.273  0.00  0.00    +0.093 C 
ATOM     11  N   UNL     1     -10.120   2.237 -17.384  0.00  0.00    -0.042 NA
ATOM     12  C   UNL     1     -12.063   5.214 -17.356  0.00  0.00    +0.311 C 
ENDROOT
BRANCH  12  13
ATOM     13  N   UNL     1     -11.832   6.514 -17.740  0.00  0.00    -0.247 N 
ATOM     14  H   UNL     1     -11.934   6.573 -18.752  0.00  0.00    +0.288 HD
ATOM     15  H   UNL     1     -10.938   6.873 -17.424  0.00  0.00    +0.288 HD
ENDBRANCH  12  13
TORSDOF 1
ENDMDL
MODEL 3
REMARK VINA RESULT:      -5.4      1.471      1.984
REMARK  Name = min_compound99.pdb
REMARK  3 active torsions:
REMARK  status: ('A' for Active; 'I' for Inactive)
REMARK    1  A    between atoms: _8  and  _11
REMARK    2  A    between atoms: _9  and  _13
REMARK    3  A    between atoms: _10  and  _12
REMARK                            x       y       z     vdW  Elec       q    Type
REMARK                         _______ _______ _______ _____ _____    ______ ____
ROOT
ATOM      1  N   UNL     1     -11.433   0.575 -17.935  0.00  0.00    +0.006 NA
ATOM      2  C   UNL     1     -12.110   1.628 -17.590  0.00  0.00    +0.391 C 
ATOM      3  C   UNL     1     -11.838   2.379 -16.289  0.00  0.00    +0.137 C 
ATOM      4  C   UNL     1     -10.781   1.806 -15.455  0.00  0.00    +0.099 C 
ATOM      5  C   UNL     1     -10.102   0.649 -15.951  0.00  0.00    +0.078 C 
ATOM      6  N   UNL     1     -12.499   3.444 -15.946  0.00  0.00    -0.269 NA
ATOM      7  C   UNL     1     -13.462   3.857 -16.836  0.00  0.00    +0.172 C 
ATOM      8  C   UNL     1     -14.221   5.101 -16.512  0.00  0.00    +0.041 C 
ATOM      9  C   UNL     1     -13.742   3.102 -18.101  0.00  0.00    +0.152 C 
ATOM     10  C   UNL     1     -14.837   3.601 -19.014  0.00  0.00    +0.093 C 
ATOM     11  N   UNL     1     -13.098   2.034 -18.457  0.00  0.00    -0.042 NA
ATOM     12  C   UNL     1     -10.426   0.097 -17.136  0.00  0.00    +0.311 C 
ENDROOT
BRANCH  12  13
ATOM     13  N   UNL     1      -9.735  -1.009 -17.574  0.00  0.00    -0.247 N 
ATOM     14  H   UNL     1      -9.210  -0.749 -18.408  0.00  0.00    +0.288 HD
ATOM     15  H   UNL     1     -10.327  -1.816 -17.731  0.00  0.00    +0.288 HD
ENDBRANCH  12  13
TORSDOF 1
ENDMDL
MODEL 4
REMARK VINA RESULT:      -5.4      1.826      2.504
REMARK  Name = min_compound99.pdb
REMARK  3 active torsions:
REMARK  status: ('A' for Active; 'I' for Inactive)
REMARK    1  A    between atoms: _8  and  _11
REMARK    2  A    between atoms: _9  and  _13
REMARK    3  A    between atoms: _10  and  _12
REMARK                            x       y       z     vdW  Elec       q    Type
REMARK                         _______ _______ _______ _____ _____    ______ ____
ROOT
ATOM      1  N   UNL     1     -12.210   1.483 -17.597  0.00  0.00    +0.006 NA
ATOM      2  C   UNL     1     -12.158   2.774 -17.729  0.00  0.00    +0.391 C 
ATOM      3  C   UNL     1     -11.316   3.653 -16.809  0.00  0.00    +0.137 C 
ATOM      4  C   UNL     1     -10.598   2.934 -15.755  0.00  0.00    +0.099 C 
ATOM      5  C   UNL     1     -10.728   1.509 -15.721  0.00  0.00    +0.078 C 
ATOM      6  N   UNL     1     -11.245   4.943 -16.947  0.00  0.00    -0.269 NA
ATOM      7  C   UNL     1     -11.979   5.470 -17.983  0.00  0.00    +0.172 C 
ATOM      8  C   UNL     1     -11.898   6.942 -18.215  0.00  0.00    +0.041 C 
ATOM      9  C   UNL     1     -12.824   4.604 -18.870  0.00  0.00    +0.152 C 
ATOM     10  C   UNL     1     -13.625   5.260 -19.970  0.00  0.00    +0.093 C 
ATOM     11  N   UNL     1     -12.912   3.317 -18.744  0.00  0.00    -0.042 NA
ATOM     12  C   UNL     1     -11.490   0.851 -16.615  0.00  0.00    +0.311 C 
ENDROOT
BRANCH  12  13
ATOM     13  N   UNL     1     -11.572  -0.520 -16.547  0.00  0.00    -0.247 N 
ATOM     14  H   UNL     1     -10.651  -0.907 -16.744  0.00  0.00    +0.288 HD
ATOM     15  H   UNL     1     -12.288  -0.909 -17.149  0.00  0.00    +0.288 HD
ENDBRANCH  12  13
TORSDOF 1
ENDMDL
MODEL 5
REMARK VINA RESULT:      -5.3      2.449      3.347
REMARK  Name = min_compound99.pdb
REMARK  3 active torsions:
REMARK  status: ('A' for Active; 'I' for Inactive)
REMARK    1  A    between atoms: _8  and  _11
REMARK    2  A    between atoms: _9  and  _13
REMARK    3  A    between atoms: _10  and  _12
REMARK                            x       y       z     vdW  Elec       q    Type
REMARK                         _______ _______ _______ _____ _____    ______ ____
ROOT
ATOM      1  N   UNL     1     -11.505   1.692 -16.901  0.00  0.00    +0.006 NA
ATOM      2  C   UNL     1     -12.074   2.453 -17.786  0.00  0.00    +0.391 C 
ATOM      3  C   UNL     1     -11.978   3.975 -17.732  0.00  0.00    +0.137 C 
ATOM      4  C   UNL     1     -11.221   4.506 -16.596  0.00  0.00    +0.099 C 
ATOM      5  C   UNL     1     -10.633   3.563 -15.696  0.00  0.00    +0.078 C 
ATOM      6  N   UNL     1     -12.529   4.742 -18.624  0.00  0.00    -0.269 NA
ATOM      7  C   UNL     1     -13.207   4.093 -19.629  0.00  0.00    +0.172 C 
ATOM      8  C   UNL     1     -13.822   4.924 -20.704  0.00  0.00    +0.041 C 
ATOM      9  C   UNL     1     -13.319   2.597 -19.663  0.00  0.00    +0.152 C 
ATOM     10  C   UNL     1     -14.106   1.957 -20.782  0.00  0.00    +0.093 C 
ATOM     11  N   UNL     1     -12.782   1.816 -18.779  0.00  0.00    -0.042 NA
ATOM     12  C   UNL     1     -10.776   2.236 -15.874  0.00  0.00    +0.311 C 
ENDROOT
BRANCH  12  13
ATOM     13  N   UNL     1     -10.180   1.371 -14.987  0.00  0.00    -0.247 N 
ATOM     14  H   UNL     1      -9.262   1.740 -14.746  0.00  0.00    +0.288 HD
ATOM     15  H   UNL     1     -10.133   0.418 -15.327  0.00  0.00    +0.288 HD
ENDBRANCH  12  13
TORSDOF 1
ENDMDL
MODEL 6
REMARK VINA RESULT:      -5.3      1.737      1.838
REMARK  Name = min_compound99.pdb
REMARK  3 active torsions:
REMARK  status: ('A' for Active; 'I' for Inactive)
REMARK    1  A    between atoms: _8  and  _11
REMARK    2  A    between atoms: _9  and  _13
REMARK    3  A    between atoms: _10  and  _12
REMARK                            x       y       z     vdW  Elec       q    Type
REMARK                         _______ _______ _______ _____ _____    ______ ____
ROOT
ATOM      1  N   UNL     1     -10.642   2.752 -16.121  0.00  0.00    +0.006 NA
ATOM      2  C   UNL     1     -11.340   3.359 -17.033  0.00  0.00    +0.391 C 
ATOM      3  C   UNL     1     -12.254   2.604 -17.995  0.00  0.00    +0.137 C 
ATOM      4  C   UNL     1     -12.260   1.149 -17.827  0.00  0.00    +0.099 C 
ATOM      5  C   UNL     1     -11.455   0.602 -16.778  0.00  0.00    +0.078 C 
ATOM      6  N   UNL     1     -12.968   3.206 -18.897  0.00  0.00    -0.269 NA
ATOM      7  C   UNL     1     -12.852   4.576 -18.930  0.00  0.00    +0.172 C 
ATOM      8  C   UNL     1     -13.686   5.322 -19.918  0.00  0.00    +0.041 C 
ATOM      9  C   UNL     1     -11.934   5.311 -17.999  0.00  0.00    +0.152 C 
ATOM     10  C   UNL     1     -11.838   6.814 -18.116  0.00  0.00    +0.093 C 
ATOM     11  N   UNL     1     -11.208   4.728 -17.097  0.00  0.00    -0.042 NA
ATOM     12  C   UNL     1     -10.709   1.389 -15.980  0.00  0.00    +0.311 C 
ENDROOT
BRANCH  12  13
ATOM     13  N   UNL     1      -9.962   0.815 -14.978  0.00  0.00    -0.247 N 
ATOM     14  H   UNL     1      -9.294   1.506 -14.640  0.00  0.00    +0.288 HD
ATOM     15  H   UNL     1      -9.511  -0.048 -15.259  0.00  0.00    +0.288 HD
ENDBRANCH  12  13
TORSDOF 1
ENDMDL
MODEL 7
REMARK VINA RESULT:      -5.2     10.433     11.491
REMARK  Name = min_compound99.pdb
REMARK  3 active torsions:
REMARK  status: ('A' for Active; 'I' for Inactive)
REMARK    1  A    between atoms: _8  and  _11
REMARK    2  A    between atoms: _9  and  _13
REMARK    3  A    between atoms: _10  and  _12
REMARK                            x       y       z     vdW  Elec       q    Type
REMARK                         _______ _______ _______ _____ _____    ______ ____
ROOT
ATOM      1  N   UNL     1     -16.226  -0.792  -5.914  0.00  0.00    +0.006 NA
ATOM      2  C   UNL     1     -16.650   0.132  -6.722  0.00  0.00    +0.391 C 
ATOM      3  C   UNL     1     -15.698   1.095  -7.428  0.00  0.00    +0.137 C 
ATOM      4  C   UNL     1     -14.282   0.911  -7.104  0.00  0.00    +0.099 C 
ATOM      5  C   UNL     1     -13.942  -0.150  -6.208  0.00  0.00    +0.078 C 
ATOM      6  N   UNL     1     -16.114   2.010  -8.250  0.00  0.00    -0.269 NA
ATOM      7  C   UNL     1     -17.473   2.057  -8.450  0.00  0.00    +0.172 C 
ATOM      8  C   UNL     1     -18.001   3.060  -9.420  0.00  0.00    +0.041 C 
ATOM      9  C   UNL     1     -18.406   1.124  -7.735  0.00  0.00    +0.152 C 
ATOM     10  C   UNL     1     -19.890   1.256  -7.983  0.00  0.00    +0.093 C 
ATOM     11  N   UNL     1     -18.012   0.209  -6.906  0.00  0.00    -0.042 NA
ATOM     12  C   UNL     1     -14.885  -0.948  -5.671  0.00  0.00    +0.311 C 
ENDROOT
BRANCH  12  13
ATOM     13  N   UNL     1     -14.504  -1.962  -4.824  0.00  0.00    -0.247 N 
ATOM     14  H   UNL     1     -13.502  -2.108  -4.928  0.00  0.00    +0.288 HD
ATOM     15  H   UNL     1     -15.032  -2.817  -4.959  0.00  0.00    +0.288 HD
ENDBRANCH  12  13
TORSDOF 1
ENDMDL
MODEL 8
REMARK VINA RESULT:      -5.0     11.495     12.651
REMARK  Name = min_compound99.pdb
REMARK  3 active torsions:
REMARK  status: ('A' for Active; 'I' for Inactive)
REMARK    1  A    between atoms: _8  and  _11
REMARK    2  A    between atoms: _9  and  _13
REMARK    3  A    between atoms: _10  and  _12
REMARK                            x       y       z     vdW  Elec       q    Type
REMARK                         _______ _______ _______ _____ _____    ______ ____
ROOT
ATOM      1  N   UNL     1     -15.688   1.624  -7.204  0.00  0.00    +0.006 NA
ATOM      2  C   UNL     1     -15.432   0.951  -6.123  0.00  0.00    +0.391 C 
ATOM      3  C   UNL     1     -16.134  -0.365  -5.798  0.00  0.00    +0.137 C 
ATOM      4  C   UNL     1     -17.131  -0.791  -6.782  0.00  0.00    +0.099 C 
ATOM      5  C   UNL     1     -17.313   0.032  -7.938  0.00  0.00    +0.078 C 
ATOM      6  N   UNL     1     -15.871  -1.052  -4.728  0.00  0.00    -0.269 NA
ATOM      7  C   UNL     1     -14.911  -0.518  -3.901  0.00  0.00    +0.172 C 
ATOM      8  C   UNL     1     -14.537  -1.290  -2.679  0.00  0.00    +0.041 C 
ATOM      9  C   UNL     1     -14.241   0.788  -4.212  0.00  0.00    +0.152 C 
ATOM     10  C   UNL     1     -13.218   1.325  -3.239  0.00  0.00    +0.093 C 
ATOM     11  N   UNL     1     -14.495   1.491  -5.270  0.00  0.00    -0.042 NA
ATOM     12  C   UNL     1     -16.605   1.164  -8.114  0.00  0.00    +0.311 C 
ENDROOT
BRANCH  12  13
ATOM     13  N   UNL     1     -16.809   1.915  -9.248  0.00  0.00    -0.247 N 
ATOM     14  H   UNL     1     -16.855   2.896  -8.979  0.00  0.00    +0.288 HD
ATOM     15  H   UNL     1     -17.621   1.625  -9.780  0.00  0.00    +0.288 HD
ENDBRANCH  12  13
TORSDOF 1
ENDMDL
MODEL 9
REMARK VINA RESULT:      -5.0     13.007     13.348
REMARK  Name = min_compound99.pdb
REMARK  3 active torsions:
REMARK  status: ('A' for Active; 'I' for Inactive)
REMARK    1  A    between atoms: _8  and  _11
REMARK    2  A    between atoms: _9  and  _13
REMARK    3  A    between atoms: _10  and  _12
REMARK                            x       y       z     vdW  Elec       q    Type
REMARK                         _______ _______ _______ _____ _____    ______ ____
ROOT
ATOM      1  N   UNL     1     -15.893   0.254  -5.099  0.00  0.00    +0.006 NA
ATOM      2  C   UNL     1     -16.179   1.498  -4.859  0.00  0.00    +0.391 C 
ATOM      3  C   UNL     1     -15.263   2.399  -4.035  0.00  0.00    +0.137 C 
ATOM      4  C   UNL     1     -14.058   1.747  -3.518  0.00  0.00    +0.099 C 
ATOM      5  C   UNL     1     -13.851   0.374  -3.862  0.00  0.00    +0.078 C 
ATOM      6  N   UNL     1     -15.534   3.649  -3.807  0.00  0.00    -0.269 NA
ATOM      7  C   UNL     1     -16.704   4.114  -4.359  0.00  0.00    +0.172 C 
ATOM      8  C   UNL     1     -17.041   5.554  -4.165  0.00  0.00    +0.041 C 
ATOM      9  C   UNL     1     -17.613   3.217  -5.147  0.00  0.00    +0.152 C 
ATOM     10  C   UNL     1     -18.896   3.793  -5.697  0.00  0.00    +0.093 C 
ATOM     11  N   UNL     1     -17.363   1.967  -5.380  0.00  0.00    -0.042 NA
ATOM     12  C   UNL     1     -14.733  -0.302  -4.622  0.00  0.00    +0.311 C 
ENDROOT
BRANCH  12  13
ATOM     13  N   UNL     1     -14.482  -1.618  -4.934  0.00  0.00    -0.247 N 
ATOM     14  H   UNL     1     -15.211  -1.942  -5.567  0.00  0.00    +0.288 HD
ATOM     15  H   UNL     1     -14.390  -2.213  -4.119  0.00  0.00    +0.288 HD
ENDBRANCH  12  13
TORSDOF 1
ENDMDL
