MODEL 1
REMARK VINA RESULT:      -6.0      0.000      0.000
REMARK  Name = min_compound977.pdb
REMARK  10 active torsions:
REMARK  status: ('A' for Active; 'I' for Inactive)
REMARK    1  A    between atoms: _7  and  _9
REMARK    2  A    between atoms: _9  and  _10
REMARK    3  A    between atoms: _10  and  _11
REMARK    4  A    between atoms: _10  and  _12
REMARK    5  A    between atoms: _12  and  _13
REMARK    6  A    between atoms: _13  and  _14
REMARK    7  A    between atoms: _14  and  _15
REMARK    8  A    between atoms: _15  and  _16
REMARK    9  A    between atoms: _16  and  _17
REMARK   10  A    between atoms: _18  and  _20
REMARK                            x       y       z     vdW  Elec       q    Type
REMARK                         _______ _______ _______ _____ _____    ______ ____
ROOT
ATOM      1  C   UNL     1     -15.875   2.257  -3.843  0.00  0.00    +0.009 A 
ATOM      2  C   UNL     1     -16.030   0.820  -3.606  0.00  0.00    +0.019 A 
ATOM      3  C   UNL     1     -17.115   0.086  -3.957  0.00  0.00    +0.319 C 
ATOM      4  O   UNL     1     -17.097  -1.294  -3.735  0.00  0.00    -0.195 OA
ATOM      5  O   UNL     1     -16.458  -1.553  -2.431  0.00  0.00    -0.195 OA
ATOM      6  C   UNL     1     -15.134  -1.117  -2.500  0.00  0.00    +0.316 C 
ATOM      7  C   UNL     1     -14.874   0.088  -3.049  0.00  0.00    +0.018 A 
ATOM      8  C   UNL     1     -13.551   0.705  -3.189  0.00  0.00    +0.009 A 
ATOM      9  C   UNL     1     -13.459   1.990  -3.583  0.00  0.00    +0.000 A 
ATOM     10  C   UNL     1     -14.645   2.800  -3.834  0.00  0.00    +0.000 A 
ENDROOT
BRANCH   6  11
ATOM     11  O   UNL     1     -14.187  -1.909  -1.886  0.00  0.00    -0.361 OA
ATOM     12  H   UNL     1     -13.830  -1.430  -1.122  0.00  0.00    +0.213 HD
ENDBRANCH   6  11
BRANCH   3  13
ATOM     13  O   UNL     1     -18.173   0.581  -4.723  0.00  0.00    -0.342 OA
BRANCH  13  14
ATOM     14  C   UNL     1     -18.081   0.347  -6.304  0.00  0.00    +0.119 C 
ATOM     15  C   UNL     1     -19.494  -0.252  -6.762  0.00  0.00    +0.038 C 
BRANCH  14  16
ATOM     16  C   UNL     1     -18.453   1.738  -6.724  0.00  0.00    +0.031 C 
BRANCH  16  17
ATOM     17  C   UNL     1     -16.958   2.136  -7.191  0.00  0.00    +0.002 C 
BRANCH  17  18
ATOM     18  C   UNL     1     -16.094   0.928  -7.580  0.00  0.00    +0.000 C 
BRANCH  18  19
ATOM     19  C   UNL     1     -14.608   1.202  -7.328  0.00  0.00    -0.000 C 
BRANCH  19  20
ATOM     20  C   UNL     1     -13.933   0.024  -6.626  0.00  0.00    -0.003 C 
ATOM     21  C   UNL     1     -14.872  -1.166  -6.509  0.00  0.00    +0.004 C 
ENDBRANCH  19  20
ENDBRANCH  18  19
ENDBRANCH  17  18
ENDBRANCH  16  17
ENDBRANCH  14  16
ENDBRANCH  13  14
ENDBRANCH   3  13
TORSDOF 8
ENDMDL
MODEL 2
REMARK VINA RESULT:      -5.7      9.530     11.834
REMARK  Name = min_compound977.pdb
REMARK  10 active torsions:
REMARK  status: ('A' for Active; 'I' for Inactive)
REMARK    1  A    between atoms: _7  and  _9
REMARK    2  A    between atoms: _9  and  _10
REMARK    3  A    between atoms: _10  and  _11
REMARK    4  A    between atoms: _10  and  _12
REMARK    5  A    between atoms: _12  and  _13
REMARK    6  A    between atoms: _13  and  _14
REMARK    7  A    between atoms: _14  and  _15
REMARK    8  A    between atoms: _15  and  _16
REMARK    9  A    between atoms: _16  and  _17
REMARK   10  A    between atoms: _18  and  _20
REMARK                            x       y       z     vdW  Elec       q    Type
REMARK                         _______ _______ _______ _____ _____    ______ ____
ROOT
ATOM      1  C   UNL     1     -12.527   0.465 -16.967  0.00  0.00    +0.009 A 
ATOM      2  C   UNL     1     -12.365   1.832 -16.468  0.00  0.00    +0.019 A 
ATOM      3  C   UNL     1     -13.361   2.746 -16.364  0.00  0.00    +0.319 C 
ATOM      4  O   UNL     1     -13.078   3.993 -15.800  0.00  0.00    -0.195 OA
ATOM      5  O   UNL     1     -11.756   4.437 -16.280  0.00  0.00    -0.195 OA
ATOM      6  C   UNL     1     -10.797   3.535 -15.817  0.00  0.00    +0.316 C 
ATOM      7  C   UNL     1     -11.044   2.212 -15.925  0.00  0.00    +0.018 A 
ATOM      8  C   UNL     1     -10.148   1.130 -15.507  0.00  0.00    +0.009 A 
ATOM      9  C   UNL     1     -10.440  -0.140 -15.847  0.00  0.00    +0.000 A 
ATOM     10  C   UNL     1     -11.605  -0.465 -16.661  0.00  0.00    +0.000 A 
ENDROOT
BRANCH   6  11
ATOM     11  O   UNL     1      -9.601   4.067 -15.385  0.00  0.00    -0.361 OA
ATOM     12  H   UNL     1      -9.284   4.697 -16.050  0.00  0.00    +0.213 HD
ENDBRANCH   6  11
BRANCH   3  13
ATOM     13  O   UNL     1     -14.709   2.454 -16.589  0.00  0.00    -0.342 OA
BRANCH  13  14
ATOM     14  C   UNL     1     -15.774   3.324 -15.770  0.00  0.00    +0.119 C 
ATOM     15  C   UNL     1     -17.009   3.583 -16.756  0.00  0.00    +0.038 C 
BRANCH  14  16
ATOM     16  C   UNL     1     -16.466   2.182 -15.087  0.00  0.00    +0.031 C 
BRANCH  16  17
ATOM     17  C   UNL     1     -16.652   2.964 -13.684  0.00  0.00    +0.002 C 
BRANCH  17  18
ATOM     18  C   UNL     1     -15.511   3.944 -13.372  0.00  0.00    +0.000 C 
BRANCH  18  19
ATOM     19  C   UNL     1     -15.953   5.009 -12.364  0.00  0.00    -0.000 C 
BRANCH  19  20
ATOM     20  C   UNL     1     -15.227   4.851 -11.028  0.00  0.00    -0.003 C 
ATOM     21  C   UNL     1     -15.935   3.852 -10.126  0.00  0.00    +0.004 C 
ENDBRANCH  19  20
ENDBRANCH  18  19
ENDBRANCH  17  18
ENDBRANCH  16  17
ENDBRANCH  14  16
ENDBRANCH  13  14
ENDBRANCH   3  13
TORSDOF 8
ENDMDL
MODEL 3
REMARK VINA RESULT:      -5.7      9.547     11.919
REMARK  Name = min_compound977.pdb
REMARK  10 active torsions:
REMARK  status: ('A' for Active; 'I' for Inactive)
REMARK    1  A    between atoms: _7  and  _9
REMARK    2  A    between atoms: _9  and  _10
REMARK    3  A    between atoms: _10  and  _11
REMARK    4  A    between atoms: _10  and  _12
REMARK    5  A    between atoms: _12  and  _13
REMARK    6  A    between atoms: _13  and  _14
REMARK    7  A    between atoms: _14  and  _15
REMARK    8  A    between atoms: _15  and  _16
REMARK    9  A    between atoms: _16  and  _17
REMARK   10  A    between atoms: _18  and  _20
REMARK                            x       y       z     vdW  Elec       q    Type
REMARK                         _______ _______ _______ _____ _____    ______ ____
ROOT
ATOM      1  C   UNL     1     -14.914   4.528 -12.986  0.00  0.00    +0.009 A 
ATOM      2  C   UNL     1     -15.293   3.831 -14.217  0.00  0.00    +0.019 A 
ATOM      3  C   UNL     1     -14.463   3.592 -15.263  0.00  0.00    +0.319 C 
ATOM      4  O   UNL     1     -14.939   2.848 -16.346  0.00  0.00    -0.195 OA
ATOM      5  O   UNL     1     -16.329   3.256 -16.623  0.00  0.00    -0.195 OA
ATOM      6  C   UNL     1     -17.109   2.932 -15.511  0.00  0.00    +0.316 C 
ATOM      7  C   UNL     1     -16.644   3.237 -14.281  0.00  0.00    +0.018 A 
ATOM      8  C   UNL     1     -17.333   2.984 -13.012  0.00  0.00    +0.009 A 
ATOM      9  C   UNL     1     -16.838   3.510 -11.874  0.00  0.00    +0.000 A 
ATOM     10  C   UNL     1     -15.657   4.363 -11.877  0.00  0.00    +0.000 A 
ENDROOT
BRANCH   6  11
ATOM     11  O   UNL     1     -18.366   2.426 -15.761  0.00  0.00    -0.361 OA
ATOM     12  H   UNL     1     -18.642   1.892 -15.001  0.00  0.00    +0.213 HD
ENDBRANCH   6  11
BRANCH   3  13
ATOM     13  O   UNL     1     -13.092   3.858 -15.242  0.00  0.00    -0.342 OA
BRANCH  13  14
ATOM     14  C   UNL     1     -12.359   3.942 -16.663  0.00  0.00    +0.119 C 
ATOM     15  C   UNL     1     -12.465   5.466 -17.144  0.00  0.00    +0.038 C 
BRANCH  14  16
ATOM     16  C   UNL     1     -10.964   4.127 -16.146  0.00  0.00    +0.031 C 
BRANCH  16  17
ATOM     17  C   UNL     1     -10.656   2.544 -16.035  0.00  0.00    +0.002 C 
BRANCH  17  18
ATOM     18  C   UNL     1     -10.202   1.913 -17.360  0.00  0.00    +0.000 C 
BRANCH  18  19
ATOM     19  C   UNL     1     -10.762   0.497 -17.522  0.00  0.00    -0.000 C 
BRANCH  19  20
ATOM     20  C   UNL     1      -9.697  -0.562 -17.236  0.00  0.00    -0.003 C 
ATOM     21  C   UNL     1      -9.723  -0.996 -15.779  0.00  0.00    +0.004 C 
ENDBRANCH  19  20
ENDBRANCH  18  19
ENDBRANCH  17  18
ENDBRANCH  16  17
ENDBRANCH  14  16
ENDBRANCH  13  14
ENDBRANCH   3  13
TORSDOF 8
ENDMDL
MODEL 4
REMARK VINA RESULT:      -5.5      3.526      4.479
REMARK  Name = min_compound977.pdb
REMARK  10 active torsions:
REMARK  status: ('A' for Active; 'I' for Inactive)
REMARK    1  A    between atoms: _7  and  _9
REMARK    2  A    between atoms: _9  and  _10
REMARK    3  A    between atoms: _10  and  _11
REMARK    4  A    between atoms: _10  and  _12
REMARK    5  A    between atoms: _12  and  _13
REMARK    6  A    between atoms: _13  and  _14
REMARK    7  A    between atoms: _14  and  _15
REMARK    8  A    between atoms: _15  and  _16
REMARK    9  A    between atoms: _16  and  _17
REMARK   10  A    between atoms: _18  and  _20
REMARK                            x       y       z     vdW  Elec       q    Type
REMARK                         _______ _______ _______ _____ _____    ______ ____
ROOT
ATOM      1  C   UNL     1     -15.602   2.516  -4.781  0.00  0.00    +0.009 A 
ATOM      2  C   UNL     1     -15.572   1.462  -5.797  0.00  0.00    +0.019 A 
ATOM      3  C   UNL     1     -16.106   1.563  -7.039  0.00  0.00    +0.319 C 
ATOM      4  O   UNL     1     -15.939   0.502  -7.935  0.00  0.00    -0.195 OA
ATOM      5  O   UNL     1     -16.096  -0.765  -7.196  0.00  0.00    -0.195 OA
ATOM      6  C   UNL     1     -15.076  -0.847  -6.248  0.00  0.00    +0.316 C 
ATOM      7  C   UNL     1     -14.801   0.238  -5.493  0.00  0.00    +0.018 A 
ATOM      8  C   UNL     1     -13.780   0.325  -4.446  0.00  0.00    +0.009 A 
ATOM      9  C   UNL     1     -13.743   1.408  -3.645  0.00  0.00    +0.000 A 
ATOM     10  C   UNL     1     -14.722   2.480  -3.764  0.00  0.00    +0.000 A 
ENDROOT
BRANCH   6  11
ATOM     11  O   UNL     1     -14.495  -2.083  -6.066  0.00  0.00    -0.361 OA
ATOM     12  H   UNL     1     -14.838  -2.689  -6.740  0.00  0.00    +0.213 HD
ENDBRANCH   6  11
BRANCH   3  13
ATOM     13  O   UNL     1     -16.633   2.745  -7.564  0.00  0.00    -0.342 OA
BRANCH  13  14
ATOM     14  C   UNL     1     -16.863   2.784  -9.148  0.00  0.00    +0.119 C 
ATOM     15  C   UNL     1     -18.446   2.848  -9.380  0.00  0.00    +0.038 C 
BRANCH  14  16
ATOM     16  C   UNL     1     -16.705   4.265  -9.326  0.00  0.00    +0.031 C 
BRANCH  16  17
ATOM     17  C   UNL     1     -15.593   4.137 -10.492  0.00  0.00    +0.002 C 
BRANCH  17  18
ATOM     18  C   UNL     1     -15.926   4.952 -11.750  0.00  0.00    +0.000 C 
BRANCH  18  19
ATOM     19  C   UNL     1     -15.969   4.060 -12.995  0.00  0.00    -0.000 C 
BRANCH  19  20
ATOM     20  C   UNL     1     -17.023   2.961 -12.860  0.00  0.00    -0.003 C 
ATOM     21  C   UNL     1     -18.277   3.293 -13.653  0.00  0.00    +0.004 C 
ENDBRANCH  19  20
ENDBRANCH  18  19
ENDBRANCH  17  18
ENDBRANCH  16  17
ENDBRANCH  14  16
ENDBRANCH  13  14
ENDBRANCH   3  13
TORSDOF 8
ENDMDL
MODEL 5
REMARK VINA RESULT:      -5.5      1.993      4.806
REMARK  Name = min_compound977.pdb
REMARK  10 active torsions:
REMARK  status: ('A' for Active; 'I' for Inactive)
REMARK    1  A    between atoms: _7  and  _9
REMARK    2  A    between atoms: _9  and  _10
REMARK    3  A    between atoms: _10  and  _11
REMARK    4  A    between atoms: _10  and  _12
REMARK    5  A    between atoms: _12  and  _13
REMARK    6  A    between atoms: _13  and  _14
REMARK    7  A    between atoms: _14  and  _15
REMARK    8  A    between atoms: _15  and  _16
REMARK    9  A    between atoms: _16  and  _17
REMARK   10  A    between atoms: _18  and  _20
REMARK                            x       y       z     vdW  Elec       q    Type
REMARK                         _______ _______ _______ _____ _____    ______ ____
ROOT
ATOM      1  C   UNL     1     -15.771  -0.882  -6.710  0.00  0.00    +0.009 A 
ATOM      2  C   UNL     1     -17.007  -0.160  -7.022  0.00  0.00    +0.019 A 
ATOM      3  C   UNL     1     -18.243  -0.507  -6.585  0.00  0.00    +0.319 C 
ATOM      4  O   UNL     1     -19.327   0.317  -6.901  0.00  0.00    -0.195 OA
ATOM      5  O   UNL     1     -19.172   0.786  -8.291  0.00  0.00    -0.195 OA
ATOM      6  C   UNL     1     -18.014   1.562  -8.363  0.00  0.00    +0.316 C 
ATOM      7  C   UNL     1     -16.889   1.108  -7.772  0.00  0.00    +0.018 A 
ATOM      8  C   UNL     1     -15.587   1.782  -7.761  0.00  0.00    +0.009 A 
ATOM      9  C   UNL     1     -14.506   1.125  -7.296  0.00  0.00    +0.000 A 
ATOM     10  C   UNL     1     -14.588  -0.256  -6.841  0.00  0.00    +0.000 A 
ENDROOT
BRANCH   6  11
ATOM     11  O   UNL     1     -18.074   2.695  -9.147  0.00  0.00    -0.361 OA
ATOM     12  H   UNL     1     -18.526   2.475  -9.975  0.00  0.00    +0.213 HD
ENDBRANCH   6  11
BRANCH   3  13
ATOM     13  O   UNL     1     -18.481  -1.524  -5.658  0.00  0.00    -0.342 OA
BRANCH  13  14
ATOM     14  C   UNL     1     -18.946  -1.063  -4.197  0.00  0.00    +0.119 C 
ATOM     15  C   UNL     1     -19.642  -2.334  -3.515  0.00  0.00    +0.038 C 
BRANCH  14  16
ATOM     16  C   UNL     1     -17.643  -1.310  -3.496  0.00  0.00    +0.031 C 
BRANCH  16  17
ATOM     17  C   UNL     1     -17.310   0.258  -3.286  0.00  0.00    +0.002 C 
BRANCH  17  18
ATOM     18  C   UNL     1     -15.815   0.587  -3.394  0.00  0.00    +0.000 C 
BRANCH  18  19
ATOM     19  C   UNL     1     -15.595   2.015  -3.904  0.00  0.00    -0.000 C 
BRANCH  19  20
ATOM     20  C   UNL     1     -14.133   2.440  -3.767  0.00  0.00    -0.003 C 
ATOM     21  C   UNL     1     -13.254   1.275  -3.341  0.00  0.00    +0.004 C 
ENDBRANCH  19  20
ENDBRANCH  18  19
ENDBRANCH  17  18
ENDBRANCH  16  17
ENDBRANCH  14  16
ENDBRANCH  13  14
ENDBRANCH   3  13
TORSDOF 8
ENDMDL
MODEL 6
REMARK VINA RESULT:      -5.3      0.922      1.760
REMARK  Name = min_compound977.pdb
REMARK  10 active torsions:
REMARK  status: ('A' for Active; 'I' for Inactive)
REMARK    1  A    between atoms: _7  and  _9
REMARK    2  A    between atoms: _9  and  _10
REMARK    3  A    between atoms: _10  and  _11
REMARK    4  A    between atoms: _10  and  _12
REMARK    5  A    between atoms: _12  and  _13
REMARK    6  A    between atoms: _13  and  _14
REMARK    7  A    between atoms: _14  and  _15
REMARK    8  A    between atoms: _15  and  _16
REMARK    9  A    between atoms: _16  and  _17
REMARK   10  A    between atoms: _18  and  _20
REMARK                            x       y       z     vdW  Elec       q    Type
REMARK                         _______ _______ _______ _____ _____    ______ ____
ROOT
ATOM      1  C   UNL     1     -15.993   2.047  -3.831  0.00  0.00    +0.009 A 
ATOM      2  C   UNL     1     -15.969   0.603  -3.583  0.00  0.00    +0.019 A 
ATOM      3  C   UNL     1     -16.966  -0.258  -3.904  0.00  0.00    +0.319 C 
ATOM      4  O   UNL     1     -16.777  -1.624  -3.676  0.00  0.00    -0.195 OA
ATOM      5  O   UNL     1     -16.083  -1.794  -2.385  0.00  0.00    -0.195 OA
ATOM      6  C   UNL     1     -14.822  -1.203  -2.487  0.00  0.00    +0.316 C 
ATOM      7  C   UNL     1     -14.721   0.020  -3.049  0.00  0.00    +0.018 A 
ATOM      8  C   UNL     1     -13.486   0.790  -3.223  0.00  0.00    +0.009 A 
ATOM      9  C   UNL     1     -13.557   2.074  -3.626  0.00  0.00    +0.000 A 
ATOM     10  C   UNL     1     -14.836   2.733  -3.853  0.00  0.00    +0.000 A 
ENDROOT
BRANCH   6  11
ATOM     11  O   UNL     1     -13.774  -1.871  -1.891  0.00  0.00    -0.361 OA
ATOM     12  H   UNL     1     -14.112  -2.690  -1.497  0.00  0.00    +0.213 HD
ENDBRANCH   6  11
BRANCH   3  13
ATOM     13  O   UNL     1     -18.092   0.101  -4.648  0.00  0.00    -0.342 OA
BRANCH  13  14
ATOM     14  C   UNL     1     -18.508  -0.888  -5.836  0.00  0.00    +0.119 C 
ATOM     15  C   UNL     1     -20.095  -0.760  -6.005  0.00  0.00    +0.038 C 
BRANCH  14  16
ATOM     16  C   UNL     1     -18.239   0.055  -6.971  0.00  0.00    +0.031 C 
BRANCH  16  17
ATOM     17  C   UNL     1     -16.942  -0.751  -7.504  0.00  0.00    +0.002 C 
BRANCH  17  18
ATOM     18  C   UNL     1     -15.649   0.075  -7.465  0.00  0.00    +0.000 C 
BRANCH  18  19
ATOM     19  C   UNL     1     -15.946   1.568  -7.298  0.00  0.00    -0.000 C 
BRANCH  19  20
ATOM     20  C   UNL     1     -15.899   2.302  -8.638  0.00  0.00    -0.003 C 
ATOM     21  C   UNL     1     -16.824   3.508  -8.644  0.00  0.00    +0.004 C 
ENDBRANCH  19  20
ENDBRANCH  18  19
ENDBRANCH  17  18
ENDBRANCH  16  17
ENDBRANCH  14  16
ENDBRANCH  13  14
ENDBRANCH   3  13
TORSDOF 8
ENDMDL
MODEL 7
REMARK VINA RESULT:      -5.3     10.064     12.487
REMARK  Name = min_compound977.pdb
REMARK  10 active torsions:
REMARK  status: ('A' for Active; 'I' for Inactive)
REMARK    1  A    between atoms: _7  and  _9
REMARK    2  A    between atoms: _9  and  _10
REMARK    3  A    between atoms: _10  and  _11
REMARK    4  A    between atoms: _10  and  _12
REMARK    5  A    between atoms: _12  and  _13
REMARK    6  A    between atoms: _13  and  _14
REMARK    7  A    between atoms: _14  and  _15
REMARK    8  A    between atoms: _15  and  _16
REMARK    9  A    between atoms: _16  and  _17
REMARK   10  A    between atoms: _18  and  _20
REMARK                            x       y       z     vdW  Elec       q    Type
REMARK                         _______ _______ _______ _____ _____    ______ ____
ROOT
ATOM      1  C   UNL     1     -12.000   2.749 -16.243  0.00  0.00    +0.009 A 
ATOM      2  C   UNL     1     -12.635   3.977 -16.729  0.00  0.00    +0.019 A 
ATOM      3  C   UNL     1     -13.972   4.175 -16.829  0.00  0.00    +0.319 C 
ATOM      4  O   UNL     1     -14.441   5.426 -17.240  0.00  0.00    -0.195 OA
ATOM      5  O   UNL     1     -13.568   5.924 -18.319  0.00  0.00    -0.195 OA
ATOM      6  C   UNL     1     -12.286   6.102 -17.797  0.00  0.00    +0.316 C 
ATOM      7  C   UNL     1     -11.759   5.131 -17.021  0.00  0.00    +0.018 A 
ATOM      8  C   UNL     1     -10.429   5.145 -16.405  0.00  0.00    +0.009 A 
ATOM      9  C   UNL     1      -9.962   4.028 -15.813  0.00  0.00    +0.000 A 
ATOM     10  C   UNL     1     -10.729   2.789 -15.806  0.00  0.00    +0.000 A 
ENDROOT
BRANCH   6  11
ATOM     11  O   UNL     1     -11.595   7.219 -18.215  0.00  0.00    -0.361 OA
ATOM     12  H   UNL     1     -10.906   6.942 -18.839  0.00  0.00    +0.213 HD
ENDBRANCH   6  11
BRANCH   3  13
ATOM     13  O   UNL     1     -14.928   3.278 -16.345  0.00  0.00    -0.342 OA
BRANCH  13  14
ATOM     14  C   UNL     1     -15.965   3.852 -15.268  0.00  0.00    +0.119 C 
ATOM     15  C   UNL     1     -16.716   2.587 -14.636  0.00  0.00    +0.038 C 
BRANCH  14  16
ATOM     16  C   UNL     1     -15.008   3.950 -14.117  0.00  0.00    +0.031 C 
BRANCH  16  17
ATOM     17  C   UNL     1     -15.479   5.434 -13.683  0.00  0.00    +0.002 C 
BRANCH  17  18
ATOM     18  C   UNL     1     -15.906   5.538 -12.212  0.00  0.00    +0.000 C 
BRANCH  18  19
ATOM     19  C   UNL     1     -15.018   4.672 -11.313  0.00  0.00    -0.000 C 
BRANCH  19  20
ATOM     20  C   UNL     1     -15.849   3.850 -10.329  0.00  0.00    -0.003 C 
ATOM     21  C   UNL     1     -17.096   3.286 -10.991  0.00  0.00    +0.004 C 
ENDBRANCH  19  20
ENDBRANCH  18  19
ENDBRANCH  17  18
ENDBRANCH  16  17
ENDBRANCH  14  16
ENDBRANCH  13  14
ENDBRANCH   3  13
TORSDOF 8
ENDMDL
MODEL 8
REMARK VINA RESULT:      -5.1      3.937      6.769
REMARK  Name = min_compound977.pdb
REMARK  10 active torsions:
REMARK  status: ('A' for Active; 'I' for Inactive)
REMARK    1  A    between atoms: _7  and  _9
REMARK    2  A    between atoms: _9  and  _10
REMARK    3  A    between atoms: _10  and  _11
REMARK    4  A    between atoms: _10  and  _12
REMARK    5  A    between atoms: _12  and  _13
REMARK    6  A    between atoms: _13  and  _14
REMARK    7  A    between atoms: _14  and  _15
REMARK    8  A    between atoms: _15  and  _16
REMARK    9  A    between atoms: _16  and  _17
REMARK   10  A    between atoms: _18  and  _20
REMARK                            x       y       z     vdW  Elec       q    Type
REMARK                         _______ _______ _______ _____ _____    ______ ____
ROOT
ATOM      1  C   UNL     1     -17.080   2.826 -11.725  0.00  0.00    +0.009 A 
ATOM      2  C   UNL     1     -16.891   3.391 -10.387  0.00  0.00    +0.019 A 
ATOM      3  C   UNL     1     -17.012   2.700  -9.227  0.00  0.00    +0.319 C 
ATOM      4  O   UNL     1     -16.731   3.351  -8.022  0.00  0.00    -0.195 OA
ATOM      5  O   UNL     1     -17.271   4.722  -8.090  0.00  0.00    -0.195 OA
ATOM      6  C   UNL     1     -16.601   5.404  -9.106  0.00  0.00    +0.316 C 
ATOM      7  C   UNL     1     -16.420   4.788 -10.294  0.00  0.00    +0.018 A 
ATOM      8  C   UNL     1     -15.755   5.358 -11.469  0.00  0.00    +0.009 A 
ATOM      9  C   UNL     1     -15.812   4.703 -12.645  0.00  0.00    +0.000 A 
ATOM     10  C   UNL     1     -16.557   3.459 -12.791  0.00  0.00    +0.000 A 
ENDROOT
BRANCH   6  11
ATOM     11  O   UNL     1     -16.274   6.720  -8.859  0.00  0.00    -0.361 OA
ATOM     12  H   UNL     1     -15.310   6.814  -8.903  0.00  0.00    +0.213 HD
ENDBRANCH   6  11
BRANCH   3  13
ATOM     13  O   UNL     1     -17.193   1.317  -9.162  0.00  0.00    -0.342 OA
BRANCH  13  14
ATOM     14  C   UNL     1     -17.113   0.653  -7.707  0.00  0.00    +0.119 C 
ATOM     15  C   UNL     1     -18.483  -0.147  -7.492  0.00  0.00    +0.038 C 
BRANCH  14  16
ATOM     16  C   UNL     1     -16.368  -0.587  -8.105  0.00  0.00    +0.031 C 
BRANCH  16  17
ATOM     17  C   UNL     1     -15.676  -0.791  -6.658  0.00  0.00    +0.002 C 
BRANCH  17  18
ATOM     18  C   UNL     1     -14.363  -0.013  -6.490  0.00  0.00    +0.000 C 
BRANCH  18  19
ATOM     19  C   UNL     1     -14.558   1.220  -5.603  0.00  0.00    -0.000 C 
BRANCH  19  20
ATOM     20  C   UNL     1     -13.892   1.039  -4.239  0.00  0.00    -0.003 C 
ATOM     21  C   UNL     1     -13.446   2.372  -3.657  0.00  0.00    +0.004 C 
ENDBRANCH  19  20
ENDBRANCH  18  19
ENDBRANCH  17  18
ENDBRANCH  16  17
ENDBRANCH  14  16
ENDBRANCH  13  14
ENDBRANCH   3  13
TORSDOF 8
ENDMDL
MODEL 9
REMARK VINA RESULT:      -5.1      2.170      4.465
REMARK  Name = min_compound977.pdb
REMARK  10 active torsions:
REMARK  status: ('A' for Active; 'I' for Inactive)
REMARK    1  A    between atoms: _7  and  _9
REMARK    2  A    between atoms: _9  and  _10
REMARK    3  A    between atoms: _10  and  _11
REMARK    4  A    between atoms: _10  and  _12
REMARK    5  A    between atoms: _12  and  _13
REMARK    6  A    between atoms: _13  and  _14
REMARK    7  A    between atoms: _14  and  _15
REMARK    8  A    between atoms: _15  and  _16
REMARK    9  A    between atoms: _16  and  _17
REMARK   10  A    between atoms: _18  and  _20
REMARK                            x       y       z     vdW  Elec       q    Type
REMARK                         _______ _______ _______ _____ _____    ______ ____
ROOT
ATOM      1  C   UNL     1     -13.701  -2.588  -1.458  0.00  0.00    +0.009 A 
ATOM      2  C   UNL     1     -14.964  -2.396  -2.175  0.00  0.00    +0.019 A 
ATOM      3  C   UNL     1     -15.367  -1.233  -2.744  0.00  0.00    +0.319 C 
ATOM      4  O   UNL     1     -16.566  -1.212  -3.462  0.00  0.00    -0.195 OA
ATOM      5  O   UNL     1     -17.560  -2.031  -2.743  0.00  0.00    -0.195 OA
ATOM      6  C   UNL     1     -17.103  -3.350  -2.718  0.00  0.00    +0.316 C 
ATOM      7  C   UNL     1     -15.812  -3.585  -2.401  0.00  0.00    +0.018 A 
ATOM      8  C   UNL     1     -15.171  -4.900  -2.313  0.00  0.00    +0.009 A 
ATOM      9  C   UNL     1     -13.928  -4.998  -1.802  0.00  0.00    +0.000 A 
ATOM     10  C   UNL     1     -13.218  -3.832  -1.292  0.00  0.00    +0.000 A 
ENDROOT
BRANCH   6  11
ATOM     11  O   UNL     1     -18.046  -4.337  -2.907  0.00  0.00    -0.361 OA
ATOM     12  H   UNL     1     -17.589  -5.178  -3.063  0.00  0.00    +0.213 HD
ENDBRANCH   6  11
BRANCH   3  13
ATOM     13  O   UNL     1     -14.560  -0.097  -2.842  0.00  0.00    -0.342 OA
BRANCH  13  14
ATOM     14  C   UNL     1     -14.671   0.742  -4.202  0.00  0.00    +0.119 C 
ATOM     15  C   UNL     1     -13.828   2.086  -3.981  0.00  0.00    +0.038 C 
BRANCH  14  16
ATOM     16  C   UNL     1     -13.545   0.070  -4.931  0.00  0.00    +0.031 C 
BRANCH  16  17
ATOM     17  C   UNL     1     -14.178   0.315  -6.398  0.00  0.00    +0.002 C 
BRANCH  17  18
ATOM     18  C   UNL     1     -15.373  -0.597  -6.711  0.00  0.00    +0.000 C 
BRANCH  18  19
ATOM     19  C   UNL     1     -16.239  -0.014  -7.831  0.00  0.00    -0.000 C 
BRANCH  19  20
ATOM     20  C   UNL     1     -16.123   1.508  -7.895  0.00  0.00    -0.003 C 
ATOM     21  C   UNL     1     -16.900   2.076  -9.072  0.00  0.00    +0.004 C 
ENDBRANCH  19  20
ENDBRANCH  18  19
ENDBRANCH  17  18
ENDBRANCH  16  17
ENDBRANCH  14  16
ENDBRANCH  13  14
ENDBRANCH   3  13
TORSDOF 8
ENDMDL
