MODEL 1
REMARK VINA RESULT:      -8.0      0.000      0.000
REMARK  Name = min_compound991.pdb
REMARK  6 active torsions:
REMARK  status: ('A' for Active; 'I' for Inactive)
REMARK    1  A    between atoms: _1  and  _7
REMARK    2  A    between atoms: _1  and  _20
REMARK    3  A    between atoms: _8  and  _20
REMARK    4  A    between atoms: _10  and  _22
REMARK    5  A    between atoms: _15  and  _24
REMARK    6  A    between atoms: _22  and  _24
REMARK                            x       y       z     vdW  Elec       q    Type
REMARK                         _______ _______ _______ _____ _____    ______ ____
ROOT
ATOM      1  C   UNL     1     -13.988   5.123 -17.598  0.00  0.00    +0.073 A 
ATOM      2  C   UNL     1     -14.201   6.264 -18.381  0.00  0.00    +0.016 A 
ATOM      3  C   UNL     1     -13.140   7.137 -18.636  0.00  0.00    +0.001 A 
ATOM      4  C   UNL     1     -11.870   6.878 -18.111  0.00  0.00    +0.001 A 
ATOM      5  C   UNL     1     -11.652   5.734 -17.341  0.00  0.00    +0.016 A 
ATOM      6  C   UNL     1     -12.715   4.859 -17.090  0.00  0.00    +0.073 A 
ENDROOT
BRANCH   6   7
ATOM      7  C   UNL     1     -12.456   3.571 -16.450  0.00  0.00    +0.340 C 
ATOM      8  O   UNL     1     -12.619   3.402 -15.252  0.00  0.00    -0.245 OA
BRANCH   7   9
ATOM      9  O   UNL     1     -12.065   2.627 -17.356  0.00  0.00    -0.458 OA
BRANCH   9  10
ATOM     10  C   UNL     1     -11.431   1.491 -16.621  0.00  0.00    +0.177 C 
ATOM     11  C   UNL     1     -11.697  -0.001 -17.103  0.00  0.00    +0.044 C 
ATOM     12  C   UNL     1     -10.901  -0.979 -16.016  0.00  0.00    +0.004 C 
ATOM     13  C   UNL     1      -9.483  -0.784 -16.464  0.00  0.00    +0.000 C 
ATOM     14  C   UNL     1      -9.319   0.252 -17.507  0.00  0.00    +0.004 C 
ATOM     15  C   UNL     1     -10.013   1.686 -17.069  0.00  0.00    +0.044 C 
ENDBRANCH   9  10
ENDBRANCH   7   9
ENDBRANCH   6   7
BRANCH   1  16
ATOM     16  C   UNL     1     -15.151   4.282 -17.248  0.00  0.00    +0.340 C 
ATOM     17  O   UNL     1     -15.533   3.311 -17.871  0.00  0.00    -0.245 OA
BRANCH  16  18
ATOM     18  O   UNL     1     -15.833   4.978 -16.300  0.00  0.00    -0.458 OA
BRANCH  18  19
ATOM     19  C   UNL     1     -15.980   4.427 -14.912  0.00  0.00    +0.177 C 
ATOM     20  C   UNL     1     -16.851   3.231 -14.669  0.00  0.00    +0.044 C 
ATOM     21  C   UNL     1     -16.999   2.680 -13.281  0.00  0.00    +0.004 C 
ATOM     22  C   UNL     1     -16.744   3.729 -12.130  0.00  0.00    +0.000 C 
ATOM     23  C   UNL     1     -15.404   4.523 -12.381  0.00  0.00    +0.004 C 
ATOM     24  C   UNL     1     -15.256   5.073 -13.768  0.00  0.00    +0.044 C 
ENDBRANCH  18  19
ENDBRANCH  16  18
ENDBRANCH   1  16
TORSDOF 6
ENDMDL
MODEL 2
REMARK VINA RESULT:      -7.9      1.003      5.981
REMARK  Name = min_compound991.pdb
REMARK  6 active torsions:
REMARK  status: ('A' for Active; 'I' for Inactive)
REMARK    1  A    between atoms: _1  and  _7
REMARK    2  A    between atoms: _1  and  _20
REMARK    3  A    between atoms: _8  and  _20
REMARK    4  A    between atoms: _10  and  _22
REMARK    5  A    between atoms: _15  and  _24
REMARK    6  A    between atoms: _22  and  _24
REMARK                            x       y       z     vdW  Elec       q    Type
REMARK                         _______ _______ _______ _____ _____    ______ ____
ROOT
ATOM      1  C   UNL     1     -12.302   5.011 -17.039  0.00  0.00    +0.073 A 
ATOM      2  C   UNL     1     -11.707   6.144 -17.605  0.00  0.00    +0.016 A 
ATOM      3  C   UNL     1     -12.509   7.137 -18.174  0.00  0.00    +0.001 A 
ATOM      4  C   UNL     1     -13.900   7.002 -18.182  0.00  0.00    +0.001 A 
ATOM      5  C   UNL     1     -14.498   5.880 -17.607  0.00  0.00    +0.016 A 
ATOM      6  C   UNL     1     -13.693   4.887 -17.035  0.00  0.00    +0.073 A 
ENDROOT
BRANCH   6   7
ATOM      7  C   UNL     1     -14.312   3.808 -16.267  0.00  0.00    +0.340 C 
ATOM      8  O   UNL     1     -14.750   2.805 -16.806  0.00  0.00    -0.245 OA
BRANCH   7   9
ATOM      9  O   UNL     1     -14.285   4.064 -14.926  0.00  0.00    -0.458 OA
BRANCH   9  10
ATOM     10  C   UNL     1     -15.689   4.092 -14.417  0.00  0.00    +0.177 C 
ATOM     11  C   UNL     1     -16.391   2.733 -13.977  0.00  0.00    +0.044 C 
ATOM     12  C   UNL     1     -17.945   3.143 -13.545  0.00  0.00    +0.004 C 
ATOM     13  C   UNL     1     -17.697   3.780 -12.210  0.00  0.00    +0.000 C 
ATOM     14  C   UNL     1     -16.264   3.947 -11.881  0.00  0.00    +0.004 C 
ATOM     15  C   UNL     1     -15.441   4.729 -13.082  0.00  0.00    +0.044 C 
ENDBRANCH   9  10
ENDBRANCH   7   9
ENDBRANCH   6   7
BRANCH   1  16
ATOM     16  C   UNL     1     -11.428   3.924 -16.552  0.00  0.00    +0.340 C 
ATOM     17  O   UNL     1     -10.674   3.997 -15.602  0.00  0.00    -0.245 OA
BRANCH  16  18
ATOM     18  O   UNL     1     -11.437   2.981 -17.531  0.00  0.00    -0.458 OA
BRANCH  18  19
ATOM     19  C   UNL     1     -11.073   1.560 -17.221  0.00  0.00    +0.177 C 
ATOM     20  C   UNL     1     -12.094   0.637 -16.624  0.00  0.00    +0.044 C 
ATOM     21  C   UNL     1     -11.729  -0.785 -16.313  0.00  0.00    +0.004 C 
ATOM     22  C   UNL     1     -10.191  -1.026 -16.059  0.00  0.00    +0.000 C 
ATOM     23  C   UNL     1      -9.323  -0.361 -17.196  0.00  0.00    +0.004 C 
ATOM     24  C   UNL     1      -9.687   1.061 -17.507  0.00  0.00    +0.044 C 
ENDBRANCH  18  19
ENDBRANCH  16  18
ENDBRANCH   1  16
TORSDOF 6
ENDMDL
MODEL 3
REMARK VINA RESULT:      -7.4      2.327      5.483
REMARK  Name = min_compound991.pdb
REMARK  6 active torsions:
REMARK  status: ('A' for Active; 'I' for Inactive)
REMARK    1  A    between atoms: _1  and  _7
REMARK    2  A    between atoms: _1  and  _20
REMARK    3  A    between atoms: _8  and  _20
REMARK    4  A    between atoms: _10  and  _22
REMARK    5  A    between atoms: _15  and  _24
REMARK    6  A    between atoms: _22  and  _24
REMARK                            x       y       z     vdW  Elec       q    Type
REMARK                         _______ _______ _______ _____ _____    ______ ____
ROOT
ATOM      1  C   UNL     1     -12.863   5.292 -17.084  0.00  0.00    +0.073 A 
ATOM      2  C   UNL     1     -14.198   5.668 -16.900  0.00  0.00    +0.016 A 
ATOM      3  C   UNL     1     -15.023   4.911 -16.063  0.00  0.00    +0.001 A 
ATOM      4  C   UNL     1     -14.520   3.781 -15.412  0.00  0.00    +0.001 A 
ATOM      5  C   UNL     1     -13.185   3.411 -15.583  0.00  0.00    +0.016 A 
ATOM      6  C   UNL     1     -12.360   4.172 -16.419  0.00  0.00    +0.073 A 
ENDROOT
BRANCH   6   7
ATOM      7  C   UNL     1     -10.923   3.906 -16.455  0.00  0.00    +0.340 C 
ATOM      8  O   UNL     1     -10.183   4.242 -15.545  0.00  0.00    -0.245 OA
BRANCH   7   9
ATOM      9  O   UNL     1     -10.565   3.223 -17.582  0.00  0.00    -0.458 OA
BRANCH   9  10
ATOM     10  C   UNL     1     -10.218   1.821 -17.202  0.00  0.00    +0.177 C 
ATOM     11  C   UNL     1     -10.427   1.340 -15.700  0.00  0.00    +0.044 C 
ATOM     12  C   UNL     1      -9.869  -0.227 -15.641  0.00  0.00    +0.004 C 
ATOM     13  C   UNL     1     -10.995  -0.941 -16.327  0.00  0.00    +0.000 C 
ATOM     14  C   UNL     1     -12.016  -0.039 -16.905  0.00  0.00    +0.004 C 
ATOM     15  C   UNL     1     -11.344   1.106 -17.888  0.00  0.00    +0.044 C 
ENDBRANCH   9  10
ENDBRANCH   7   9
ENDBRANCH   6   7
BRANCH   1  16
ATOM     16  C   UNL     1     -12.049   6.040 -18.064  0.00  0.00    +0.340 C 
ATOM     17  O   UNL     1     -11.492   7.100 -17.856  0.00  0.00    -0.245 OA
BRANCH  16  18
ATOM     18  O   UNL     1     -12.299   5.458 -19.266  0.00  0.00    -0.458 OA
BRANCH  18  19
ATOM     19  C   UNL     1     -12.525   6.301 -20.487  0.00  0.00    +0.177 C 
ATOM     20  C   UNL     1     -13.915   6.727 -20.857  0.00  0.00    +0.044 C 
ATOM     21  C   UNL     1     -14.141   7.569 -22.077  0.00  0.00    +0.004 C 
ATOM     22  C   UNL     1     -13.028   7.428 -23.186  0.00  0.00    +0.000 C 
ATOM     23  C   UNL     1     -11.587   7.560 -22.556  0.00  0.00    +0.004 C 
ATOM     24  C   UNL     1     -11.361   6.718 -21.336  0.00  0.00    +0.044 C 
ENDBRANCH  18  19
ENDBRANCH  16  18
ENDBRANCH   1  16
TORSDOF 6
ENDMDL
MODEL 4
REMARK VINA RESULT:      -7.3      2.377      6.519
REMARK  Name = min_compound991.pdb
REMARK  6 active torsions:
REMARK  status: ('A' for Active; 'I' for Inactive)
REMARK    1  A    between atoms: _1  and  _7
REMARK    2  A    between atoms: _1  and  _20
REMARK    3  A    between atoms: _8  and  _20
REMARK    4  A    between atoms: _10  and  _22
REMARK    5  A    between atoms: _15  and  _24
REMARK    6  A    between atoms: _22  and  _24
REMARK                            x       y       z     vdW  Elec       q    Type
REMARK                         _______ _______ _______ _____ _____    ______ ____
ROOT
ATOM      1  C   UNL     1     -12.827   4.429 -16.484  0.00  0.00    +0.073 A 
ATOM      2  C   UNL     1     -13.688   3.694 -15.661  0.00  0.00    +0.016 A 
ATOM      3  C   UNL     1     -14.974   4.174 -15.398  0.00  0.00    +0.001 A 
ATOM      4  C   UNL     1     -15.402   5.384 -15.950  0.00  0.00    +0.001 A 
ATOM      5  C   UNL     1     -14.551   6.114 -16.782  0.00  0.00    +0.016 A 
ATOM      6  C   UNL     1     -13.264   5.630 -17.047  0.00  0.00    +0.073 A 
ENDROOT
BRANCH   6   7
ATOM      7  C   UNL     1     -12.440   6.285 -18.060  0.00  0.00    +0.340 C 
ATOM      8  O   UNL     1     -11.621   7.142 -17.769  0.00  0.00    -0.245 OA
BRANCH   7   9
ATOM      9  O   UNL     1     -12.684   5.786 -19.308  0.00  0.00    -0.458 OA
BRANCH   9  10
ATOM     10  C   UNL     1     -12.320   6.825 -20.318  0.00  0.00    +0.177 C 
ATOM     11  C   UNL     1     -11.255   6.481 -21.449  0.00  0.00    +0.044 C 
ATOM     12  C   UNL     1     -11.054   7.881 -22.326  0.00  0.00    +0.004 C 
ATOM     13  C   UNL     1     -12.324   7.887 -23.123  0.00  0.00    +0.000 C 
ATOM     14  C   UNL     1     -13.281   6.825 -22.738  0.00  0.00    +0.004 C 
ATOM     15  C   UNL     1     -13.590   6.831 -21.115  0.00  0.00    +0.044 C 
ENDBRANCH   9  10
ENDBRANCH   7   9
ENDBRANCH   6   7
BRANCH   1  16
ATOM     16  C   UNL     1     -11.437   3.958 -16.650  0.00  0.00    +0.340 C 
ATOM     17  O   UNL     1     -10.447   4.513 -16.216  0.00  0.00    -0.245 OA
BRANCH  16  18
ATOM     18  O   UNL     1     -11.492   2.984 -17.596  0.00  0.00    -0.458 OA
BRANCH  18  19
ATOM     19  C   UNL     1     -11.094   1.576 -17.262  0.00  0.00    +0.177 C 
ATOM     20  C   UNL     1     -12.111   0.620 -16.713  0.00  0.00    +0.044 C 
ATOM     21  C   UNL     1     -11.713  -0.787 -16.379  0.00  0.00    +0.004 C 
ATOM     22  C   UNL     1     -10.182  -0.974 -16.047  0.00  0.00    +0.000 C 
ATOM     23  C   UNL     1      -9.282  -0.282 -17.143  0.00  0.00    +0.004 C 
ATOM     24  C   UNL     1      -9.680   1.125 -17.477  0.00  0.00    +0.044 C 
ENDBRANCH  18  19
ENDBRANCH  16  18
ENDBRANCH   1  16
TORSDOF 6
ENDMDL
MODEL 5
REMARK VINA RESULT:      -7.0     10.985     14.133
REMARK  Name = min_compound991.pdb
REMARK  6 active torsions:
REMARK  status: ('A' for Active; 'I' for Inactive)
REMARK    1  A    between atoms: _1  and  _7
REMARK    2  A    between atoms: _1  and  _20
REMARK    3  A    between atoms: _8  and  _20
REMARK    4  A    between atoms: _10  and  _22
REMARK    5  A    between atoms: _15  and  _24
REMARK    6  A    between atoms: _22  and  _24
REMARK                            x       y       z     vdW  Elec       q    Type
REMARK                         _______ _______ _______ _____ _____    ______ ____
ROOT
ATOM      1  C   UNL     1     -15.891   0.620  -3.497  0.00  0.00    +0.073 A 
ATOM      2  C   UNL     1     -15.994   1.986  -3.784  0.00  0.00    +0.016 A 
ATOM      3  C   UNL     1     -14.839   2.770  -3.846  0.00  0.00    +0.001 A 
ATOM      4  C   UNL     1     -13.584   2.197  -3.621  0.00  0.00    +0.001 A 
ATOM      5  C   UNL     1     -13.477   0.833  -3.348  0.00  0.00    +0.016 A 
ATOM      6  C   UNL     1     -14.635   0.049  -3.290  0.00  0.00    +0.073 A 
ENDROOT
BRANCH   6   7
ATOM      7  C   UNL     1     -14.519  -1.406  -3.193  0.00  0.00    +0.340 C 
ATOM      8  O   UNL     1     -14.397  -2.109  -4.183  0.00  0.00    -0.245 OA
BRANCH   7   9
ATOM      9  O   UNL     1     -14.526  -1.827  -1.894  0.00  0.00    -0.458 OA
BRANCH   9  10
ATOM     10  C   UNL     1     -14.459  -3.319  -1.875  0.00  0.00    +0.177 C 
ATOM     11  C   UNL     1     -13.162  -4.038  -1.300  0.00  0.00    +0.044 C 
ATOM     12  C   UNL     1     -13.416  -5.670  -1.509  0.00  0.00    +0.004 C 
ATOM     13  C   UNL     1     -14.399  -5.934  -0.407  0.00  0.00    +0.000 C 
ATOM     14  C   UNL     1     -14.868  -4.714   0.286  0.00  0.00    +0.004 C 
ATOM     15  C   UNL     1     -15.442  -3.583  -0.774  0.00  0.00    +0.044 C 
ENDBRANCH   9  10
ENDBRANCH   7   9
ENDBRANCH   6   7
BRANCH   1  16
ATOM     16  C   UNL     1     -17.134  -0.159  -3.322  0.00  0.00    +0.340 C 
ATOM     17  O   UNL     1     -17.794  -0.215  -2.303  0.00  0.00    -0.245 OA
BRANCH  16  18
ATOM     18  O   UNL     1     -17.203  -0.985  -4.399  0.00  0.00    -0.458 OA
BRANCH  18  19
ATOM     19  C   UNL     1     -17.341  -0.421  -5.782  0.00  0.00    +0.177 C 
ATOM     20  C   UNL     1     -16.351  -0.794  -6.846  0.00  0.00    +0.044 C 
ATOM     21  C   UNL     1     -16.489  -0.230  -8.230  0.00  0.00    +0.004 C 
ATOM     22  C   UNL     1     -17.258   1.146  -8.302  0.00  0.00    +0.000 C 
ATOM     23  C   UNL     1     -18.606   1.079  -7.485  0.00  0.00    +0.004 C 
ATOM     24  C   UNL     1     -18.468   0.515  -6.102  0.00  0.00    +0.044 C 
ENDBRANCH  18  19
ENDBRANCH  16  18
ENDBRANCH   1  16
TORSDOF 6
ENDMDL
MODEL 6
REMARK VINA RESULT:      -7.0      1.460      5.014
REMARK  Name = min_compound991.pdb
REMARK  6 active torsions:
REMARK  status: ('A' for Active; 'I' for Inactive)
REMARK    1  A    between atoms: _1  and  _7
REMARK    2  A    between atoms: _1  and  _20
REMARK    3  A    between atoms: _8  and  _20
REMARK    4  A    between atoms: _10  and  _22
REMARK    5  A    between atoms: _15  and  _24
REMARK    6  A    between atoms: _22  and  _24
REMARK                            x       y       z     vdW  Elec       q    Type
REMARK                         _______ _______ _______ _____ _____    ______ ____
ROOT
ATOM      1  C   UNL     1     -12.248   1.431 -16.739  0.00  0.00    +0.073 A 
ATOM      2  C   UNL     1     -12.220   0.033 -16.694  0.00  0.00    +0.016 A 
ATOM      3  C   UNL     1     -11.001  -0.641 -16.809  0.00  0.00    +0.001 A 
ATOM      4  C   UNL     1      -9.812   0.076 -16.972  0.00  0.00    +0.001 A 
ATOM      5  C   UNL     1      -9.834   1.471 -17.004  0.00  0.00    +0.016 A 
ATOM      6  C   UNL     1     -11.056   2.143 -16.885  0.00  0.00    +0.073 A 
ENDROOT
BRANCH   6   7
ATOM      7  C   UNL     1     -11.069   3.597 -16.727  0.00  0.00    +0.340 C 
ATOM      8  O   UNL     1     -10.992   4.126 -15.631  0.00  0.00    -0.245 OA
BRANCH   7   9
ATOM      9  O   UNL     1     -11.135   4.234 -17.933  0.00  0.00    -0.458 OA
BRANCH   9  10
ATOM     10  C   UNL     1     -12.298   5.171 -17.917  0.00  0.00    +0.177 C 
ATOM     11  C   UNL     1     -12.040   6.741 -17.917  0.00  0.00    +0.044 C 
ATOM     12  C   UNL     1     -13.543   7.449 -17.820  0.00  0.00    +0.004 C 
ATOM     13  C   UNL     1     -14.031   7.241 -19.223  0.00  0.00    +0.000 C 
ATOM     14  C   UNL     1     -13.138   6.402 -20.052  0.00  0.00    +0.004 C 
ATOM     15  C   UNL     1     -12.786   4.963 -19.319  0.00  0.00    +0.044 C 
ENDBRANCH   9  10
ENDBRANCH   7   9
ENDBRANCH   6   7
BRANCH   1  16
ATOM     16  C   UNL     1     -13.559   2.111 -16.733  0.00  0.00    +0.340 C 
ATOM     17  O   UNL     1     -14.187   2.442 -17.719  0.00  0.00    -0.245 OA
BRANCH  16  18
ATOM     18  O   UNL     1     -13.750   2.525 -15.452  0.00  0.00    -0.458 OA
BRANCH  18  19
ATOM     19  C   UNL     1     -15.032   3.194 -15.052  0.00  0.00    +0.177 C 
ATOM     20  C   UNL     1     -15.129   4.690 -15.053  0.00  0.00    +0.044 C 
ATOM     21  C   UNL     1     -16.411   5.359 -14.654  0.00  0.00    +0.004 C 
ATOM     22  C   UNL     1     -17.327   4.501 -13.698  0.00  0.00    +0.000 C 
ATOM     23  C   UNL     1     -17.499   3.034 -14.253  0.00  0.00    +0.004 C 
ATOM     24  C   UNL     1     -16.217   2.365 -14.652  0.00  0.00    +0.044 C 
ENDBRANCH  18  19
ENDBRANCH  16  18
ENDBRANCH   1  16
TORSDOF 6
ENDMDL
MODEL 7
REMARK VINA RESULT:      -6.9      1.773      2.418
REMARK  Name = min_compound991.pdb
REMARK  6 active torsions:
REMARK  status: ('A' for Active; 'I' for Inactive)
REMARK    1  A    between atoms: _1  and  _7
REMARK    2  A    between atoms: _1  and  _20
REMARK    3  A    between atoms: _8  and  _20
REMARK    4  A    between atoms: _10  and  _22
REMARK    5  A    between atoms: _15  and  _24
REMARK    6  A    between atoms: _22  and  _24
REMARK                            x       y       z     vdW  Elec       q    Type
REMARK                         _______ _______ _______ _____ _____    ______ ____
ROOT
ATOM      1  C   UNL     1     -13.939   5.171 -17.736  0.00  0.00    +0.073 A 
ATOM      2  C   UNL     1     -14.056   6.313 -18.537  0.00  0.00    +0.016 A 
ATOM      3  C   UNL     1     -12.950   7.147 -18.722  0.00  0.00    +0.001 A 
ATOM      4  C   UNL     1     -11.730   6.847 -18.109  0.00  0.00    +0.001 A 
ATOM      5  C   UNL     1     -11.606   5.702 -17.321  0.00  0.00    +0.016 A 
ATOM      6  C   UNL     1     -12.714   4.866 -17.140  0.00  0.00    +0.073 A 
ENDROOT
BRANCH   6   7
ATOM      7  C   UNL     1     -12.545   3.574 -16.477  0.00  0.00    +0.340 C 
ATOM      8  O   UNL     1     -12.746   3.432 -15.282  0.00  0.00    -0.245 OA
BRANCH   7   9
ATOM      9  O   UNL     1     -12.187   2.597 -17.361  0.00  0.00    -0.458 OA
BRANCH   9  10
ATOM     10  C   UNL     1     -11.531   1.486 -16.608  0.00  0.00    +0.177 C 
ATOM     11  C   UNL     1     -11.750  -0.017 -17.079  0.00  0.00    +0.044 C 
ATOM     12  C   UNL     1     -10.942  -0.963 -15.973  0.00  0.00    +0.004 C 
ATOM     13  C   UNL     1      -9.524  -0.733 -16.405  0.00  0.00    +0.000 C 
ATOM     14  C   UNL     1      -9.375   0.297 -17.457  0.00  0.00    +0.004 C 
ATOM     15  C   UNL     1     -10.113   1.716 -17.040  0.00  0.00    +0.044 C 
ENDBRANCH   9  10
ENDBRANCH   7   9
ENDBRANCH   6   7
BRANCH   1  16
ATOM     16  C   UNL     1     -15.152   4.374 -17.464  0.00  0.00    +0.340 C 
ATOM     17  O   UNL     1     -15.773   3.729 -18.286  0.00  0.00    -0.245 OA
BRANCH  16  18
ATOM     18  O   UNL     1     -15.562   4.745 -16.222  0.00  0.00    -0.458 OA
BRANCH  18  19
ATOM     19  C   UNL     1     -16.099   6.125 -15.980  0.00  0.00    +0.177 C 
ATOM     20  C   UNL     1     -15.390   7.050 -15.035  0.00  0.00    +0.044 C 
ATOM     21  C   UNL     1     -15.927   8.430 -14.793  0.00  0.00    +0.004 C 
ATOM     22  C   UNL     1     -17.476   8.584 -15.048  0.00  0.00    +0.000 C 
ATOM     23  C   UNL     1     -17.880   7.959 -16.440  0.00  0.00    +0.004 C 
ATOM     24  C   UNL     1     -17.343   6.580 -16.682  0.00  0.00    +0.044 C 
ENDBRANCH  18  19
ENDBRANCH  16  18
ENDBRANCH   1  16
TORSDOF 6
ENDMDL
MODEL 8
REMARK VINA RESULT:      -6.8      6.789     10.902
REMARK  Name = min_compound991.pdb
REMARK  6 active torsions:
REMARK  status: ('A' for Active; 'I' for Inactive)
REMARK    1  A    between atoms: _1  and  _7
REMARK    2  A    between atoms: _1  and  _20
REMARK    3  A    between atoms: _8  and  _20
REMARK    4  A    between atoms: _10  and  _22
REMARK    5  A    between atoms: _15  and  _24
REMARK    6  A    between atoms: _22  and  _24
REMARK                            x       y       z     vdW  Elec       q    Type
REMARK                         _______ _______ _______ _____ _____    ______ ____
ROOT
ATOM      1  C   UNL     1     -18.629   2.318  -7.549  0.00  0.00    +0.073 A 
ATOM      2  C   UNL     1     -20.014   2.394  -7.731  0.00  0.00    +0.016 A 
ATOM      3  C   UNL     1     -20.752   1.224  -7.931  0.00  0.00    +0.001 A 
ATOM      4  C   UNL     1     -20.113  -0.019  -7.952  0.00  0.00    +0.001 A 
ATOM      5  C   UNL     1     -18.733  -0.099  -7.758  0.00  0.00    +0.016 A 
ATOM      6  C   UNL     1     -17.996   1.074  -7.555  0.00  0.00    +0.073 A 
ENDROOT
BRANCH   6   7
ATOM      7  C   UNL     1     -16.590   0.986  -7.165  0.00  0.00    +0.340 C 
ATOM      8  O   UNL     1     -15.690   1.316  -7.920  0.00  0.00    -0.245 OA
BRANCH   7   9
ATOM      9  O   UNL     1     -16.450   0.542  -5.881  0.00  0.00    -0.458 OA
BRANCH   9  10
ATOM     10  C   UNL     1     -15.187   1.103  -5.316  0.00  0.00    +0.177 C 
ATOM     11  C   UNL     1     -15.253   2.068  -4.053  0.00  0.00    +0.044 C 
ATOM     12  C   UNL     1     -13.685   2.545  -3.761  0.00  0.00    +0.004 C 
ATOM     13  C   UNL     1     -13.134   1.297  -3.137  0.00  0.00    +0.000 C 
ATOM     14  C   UNL     1     -14.065   0.148  -3.168  0.00  0.00    +0.004 C 
ATOM     15  C   UNL     1     -14.636  -0.144  -4.691  0.00  0.00    +0.044 C 
ENDBRANCH   9  10
ENDBRANCH   7   9
ENDBRANCH   6   7
BRANCH   1  16
ATOM     16  C   UNL     1     -17.860   3.576  -7.458  0.00  0.00    +0.340 C 
ATOM     17  O   UNL     1     -17.293   3.987  -6.465  0.00  0.00    -0.245 OA
BRANCH  16  18
ATOM     18  O   UNL     1     -18.165   4.273  -8.585  0.00  0.00    -0.458 OA
BRANCH  18  19
ATOM     19  C   UNL     1     -17.350   4.098  -9.831  0.00  0.00    +0.177 C 
ATOM     20  C   UNL     1     -15.989   4.720  -9.931  0.00  0.00    +0.044 C 
ATOM     21  C   UNL     1     -15.173   4.544 -11.178  0.00  0.00    +0.004 C 
ATOM     22  C   UNL     1     -16.020   4.265 -12.480  0.00  0.00    +0.000 C 
ATOM     23  C   UNL     1     -17.081   3.126 -12.226  0.00  0.00    +0.004 C 
ATOM     24  C   UNL     1     -17.896   3.301 -10.979  0.00  0.00    +0.044 C 
ENDBRANCH  18  19
ENDBRANCH  16  18
ENDBRANCH   1  16
TORSDOF 6
ENDMDL
MODEL 9
REMARK VINA RESULT:      -6.7      1.692      2.513
REMARK  Name = min_compound991.pdb
REMARK  6 active torsions:
REMARK  status: ('A' for Active; 'I' for Inactive)
REMARK    1  A    between atoms: _1  and  _7
REMARK    2  A    between atoms: _1  and  _20
REMARK    3  A    between atoms: _8  and  _20
REMARK    4  A    between atoms: _10  and  _22
REMARK    5  A    between atoms: _15  and  _24
REMARK    6  A    between atoms: _22  and  _24
REMARK                            x       y       z     vdW  Elec       q    Type
REMARK                         _______ _______ _______ _____ _____    ______ ____
ROOT
ATOM      1  C   UNL     1     -14.859   5.226 -15.857  0.00  0.00    +0.073 A 
ATOM      2  C   UNL     1     -15.127   6.599 -15.835  0.00  0.00    +0.016 A 
ATOM      3  C   UNL     1     -14.430   7.455 -16.692  0.00  0.00    +0.001 A 
ATOM      4  C   UNL     1     -13.465   6.947 -17.566  0.00  0.00    +0.001 A 
ATOM      5  C   UNL     1     -13.204   5.576 -17.599  0.00  0.00    +0.016 A 
ATOM      6  C   UNL     1     -13.906   4.720 -16.743  0.00  0.00    +0.073 A 
ENDROOT
BRANCH   6   7
ATOM      7  C   UNL     1     -13.777   3.272 -16.903  0.00  0.00    +0.340 C 
ATOM      8  O   UNL     1     -14.429   2.655 -17.729  0.00  0.00    -0.245 OA
BRANCH   7   9
ATOM      9  O   UNL     1     -12.837   2.754 -16.060  0.00  0.00    -0.458 OA
BRANCH   9  10
ATOM     10  C   UNL     1     -11.870   1.944 -16.861  0.00  0.00    +0.177 C 
ATOM     11  C   UNL     1     -10.395   1.715 -16.312  0.00  0.00    +0.044 C 
ATOM     12  C   UNL     1      -9.601   0.846 -17.489  0.00  0.00    +0.004 C 
ATOM     13  C   UNL     1     -10.199  -0.512 -17.273  0.00  0.00    +0.000 C 
ATOM     14  C   UNL     1     -11.304  -0.533 -16.290  0.00  0.00    +0.004 C 
ATOM     15  C   UNL     1     -12.468   0.585 -16.644  0.00  0.00    +0.044 C 
ENDBRANCH   9  10
ENDBRANCH   7   9
ENDBRANCH   6   7
BRANCH   1  16
ATOM     16  C   UNL     1     -15.525   4.362 -14.861  0.00  0.00    +0.340 C 
ATOM     17  O   UNL     1     -16.579   3.780 -15.023  0.00  0.00    -0.245 OA
BRANCH  16  18
ATOM     18  O   UNL     1     -14.880   4.593 -13.687  0.00  0.00    -0.458 OA
BRANCH  18  19
ATOM     19  C   UNL     1     -15.648   5.004 -12.465  0.00  0.00    +0.177 C 
ATOM     20  C   UNL     1     -16.663   6.104 -12.553  0.00  0.00    +0.044 C 
ATOM     21  C   UNL     1     -17.431   6.515 -11.332  0.00  0.00    +0.004 C 
ATOM     22  C   UNL     1     -16.702   6.209  -9.966  0.00  0.00    +0.000 C 
ATOM     23  C   UNL     1     -16.168   4.724  -9.935  0.00  0.00    +0.004 C 
ATOM     24  C   UNL     1     -15.400   4.314 -11.157  0.00  0.00    +0.044 C 
ENDBRANCH  18  19
ENDBRANCH  16  18
ENDBRANCH   1  16
TORSDOF 6
ENDMDL
