MODEL 1
REMARK VINA RESULT:      -6.8      0.000      0.000
REMARK  Name = min_compound922.pdb
REMARK  4 active torsions:
REMARK  status: ('A' for Active; 'I' for Inactive)
REMARK    1  A    between atoms: _1  and  _15
REMARK    2  A    between atoms: _2  and  _16
REMARK    3  A    between atoms: _3  and  _17
REMARK    4  A    between atoms: _6  and  _18
REMARK                            x       y       z     vdW  Elec       q    Type
REMARK                         _______ _______ _______ _____ _____    ______ ____
ROOT
ATOM      1  C   UNL     1     -10.636   1.397 -15.882  0.00  0.00    +0.123 A 
ATOM      2  C   UNL     1     -11.134   0.280 -16.562  0.00  0.00    -0.008 A 
ATOM      3  C   UNL     1     -10.772  -1.114 -16.128  0.00  0.00    +0.047 C 
ATOM      4  C   UNL     1     -11.946   0.470 -17.695  0.00  0.00    +0.015 A 
ATOM      5  C   UNL     1     -12.299   1.748 -18.136  0.00  0.00    -0.023 A 
ATOM      6  C   UNL     1     -11.793   2.847 -17.417  0.00  0.00    +0.015 A 
ATOM      7  C   UNL     1     -10.962   2.692 -16.292  0.00  0.00    -0.008 A 
ATOM      8  C   UNL     1     -10.445   3.915 -15.591  0.00  0.00    +0.047 C 
ENDROOT
BRANCH   5   9
ATOM      9  C   UNL     1     -13.133   2.044 -19.324  0.00  0.00    +0.028 C 
ATOM     10  C   UNL     1     -14.244   2.773 -19.510  0.00  0.00    +0.077 C 
ATOM     11  C   UNL     1     -14.858   2.867 -20.869  0.00  0.00    +0.256 C 
ATOM     12  N   UNL     1     -15.988   3.633 -20.818  0.00  0.00    -0.270 N 
ATOM     13  H   UNL     1     -16.530   3.791 -21.653  0.00  0.00    +0.156 HD
ATOM     14  C   UNL     1     -16.346   4.161 -19.618  0.00  0.00    +0.118 C 
ATOM     15  S   UNL     1     -17.694   5.094 -19.391  0.00  0.00    -0.027 S 
ATOM     16  O   UNL     1     -14.428   2.343 -21.884  0.00  0.00    -0.269 OA
ATOM     17  S   UNL     1     -15.183   3.698 -18.401  0.00  0.00    -0.061 S 
ENDBRANCH   5   9
BRANCH   1  18
ATOM     18  O   UNL     1      -9.817   1.161 -14.810  0.00  0.00    -0.506 OA
ATOM     19  H   UNL     1     -10.018   0.293 -14.430  0.00  0.00    +0.292 HD
ENDBRANCH   1  18
TORSDOF 2
ENDMDL
MODEL 2
REMARK VINA RESULT:      -6.7      0.208      2.104
REMARK  Name = min_compound922.pdb
REMARK  4 active torsions:
REMARK  status: ('A' for Active; 'I' for Inactive)
REMARK    1  A    between atoms: _1  and  _15
REMARK    2  A    between atoms: _2  and  _16
REMARK    3  A    between atoms: _3  and  _17
REMARK    4  A    between atoms: _6  and  _18
REMARK                            x       y       z     vdW  Elec       q    Type
REMARK                         _______ _______ _______ _____ _____    ______ ____
ROOT
ATOM      1  C   UNL     1     -10.675   1.451 -15.936  0.00  0.00    +0.123 A 
ATOM      2  C   UNL     1     -10.889   2.767 -16.360  0.00  0.00    -0.008 A 
ATOM      3  C   UNL     1     -10.320   3.928 -15.591  0.00  0.00    +0.047 C 
ATOM      4  C   UNL     1     -11.686   3.004 -17.495  0.00  0.00    +0.015 A 
ATOM      5  C   UNL     1     -12.240   1.954 -18.231  0.00  0.00    -0.023 A 
ATOM      6  C   UNL     1     -11.989   0.643 -17.785  0.00  0.00    +0.015 A 
ATOM      7  C   UNL     1     -11.214   0.372 -16.643  0.00  0.00    -0.008 A 
ATOM      8  C   UNL     1     -11.009  -1.054 -16.218  0.00  0.00    +0.047 C 
ENDROOT
BRANCH   5   9
ATOM      9  C   UNL     1     -13.102   2.108 -19.426  0.00  0.00    +0.028 C 
ATOM     10  C   UNL     1     -14.239   2.780 -19.661  0.00  0.00    +0.077 C 
ATOM     11  C   UNL     1     -14.878   2.723 -21.011  0.00  0.00    +0.256 C 
ATOM     12  N   UNL     1     -16.031   3.454 -21.011  0.00  0.00    -0.270 N 
ATOM     13  H   UNL     1     -16.591   3.514 -21.848  0.00  0.00    +0.156 HD
ATOM     14  C   UNL     1     -16.389   4.083 -19.861  0.00  0.00    +0.118 C 
ATOM     15  S   UNL     1     -17.763   4.991 -19.699  0.00  0.00    -0.027 S 
ATOM     16  O   UNL     1     -14.446   2.117 -21.978  0.00  0.00    -0.269 OA
ATOM     17  S   UNL     1     -15.191   3.777 -18.628  0.00  0.00    -0.061 S 
ENDBRANCH   5   9
BRANCH   1  18
ATOM     18  O   UNL     1      -9.927   1.273 -14.804  0.00  0.00    -0.506 OA
ATOM     19  H   UNL     1     -10.320   1.769 -14.071  0.00  0.00    +0.292 HD
ENDBRANCH   1  18
TORSDOF 2
ENDMDL
MODEL 3
REMARK VINA RESULT:      -6.5     15.114     17.086
REMARK  Name = min_compound922.pdb
REMARK  4 active torsions:
REMARK  status: ('A' for Active; 'I' for Inactive)
REMARK    1  A    between atoms: _1  and  _15
REMARK    2  A    between atoms: _2  and  _16
REMARK    3  A    between atoms: _3  and  _17
REMARK    4  A    between atoms: _6  and  _18
REMARK                            x       y       z     vdW  Elec       q    Type
REMARK                         _______ _______ _______ _____ _____    ______ ____
ROOT
ATOM      1  C   UNL     1     -14.241   0.623  -5.199  0.00  0.00    +0.123 A 
ATOM      2  C   UNL     1     -14.834  -0.628  -5.399  0.00  0.00    -0.008 A 
ATOM      3  C   UNL     1     -15.194  -1.100  -6.781  0.00  0.00    +0.047 C 
ATOM      4  C   UNL     1     -15.138  -1.431  -4.285  0.00  0.00    +0.015 A 
ATOM      5  C   UNL     1     -14.828  -1.026  -2.984  0.00  0.00    -0.023 A 
ATOM      6  C   UNL     1     -14.216   0.231  -2.823  0.00  0.00    +0.015 A 
ATOM      7  C   UNL     1     -13.917   1.068  -3.915  0.00  0.00    -0.008 A 
ATOM      8  C   UNL     1     -13.282   2.405  -3.659  0.00  0.00    +0.047 C 
ENDROOT
BRANCH   5   9
ATOM      9  C   UNL     1     -15.124  -1.795  -1.754  0.00  0.00    +0.028 C 
ATOM     10  C   UNL     1     -14.795  -3.027  -1.337  0.00  0.00    +0.077 C 
ATOM     11  C   UNL     1     -15.271  -3.520  -0.009  0.00  0.00    +0.256 C 
ATOM     12  N   UNL     1     -14.843  -4.801   0.194  0.00  0.00    -0.270 N 
ATOM     13  H   UNL     1     -15.085  -5.287   1.044  0.00  0.00    +0.156 HD
ATOM     14  C   UNL     1     -14.092  -5.384  -0.778  0.00  0.00    +0.118 C 
ATOM     15  S   UNL     1     -13.513  -6.931  -0.688  0.00  0.00    -0.027 S 
ATOM     16  O   UNL     1     -15.945  -2.886   0.787  0.00  0.00    -0.269 OA
ATOM     17  S   UNL     1     -13.856  -4.258  -2.092  0.00  0.00    -0.061 S 
ENDBRANCH   5   9
BRANCH   1  18
ATOM     18  O   UNL     1     -14.001   1.386  -6.311  0.00  0.00    -0.506 OA
ATOM     19  H   UNL     1     -13.636   0.830  -7.016  0.00  0.00    +0.292 HD
ENDBRANCH   1  18
TORSDOF 2
ENDMDL
MODEL 4
REMARK VINA RESULT:      -6.4     10.735     12.254
REMARK  Name = min_compound922.pdb
REMARK  4 active torsions:
REMARK  status: ('A' for Active; 'I' for Inactive)
REMARK    1  A    between atoms: _1  and  _15
REMARK    2  A    between atoms: _2  and  _16
REMARK    3  A    between atoms: _3  and  _17
REMARK    4  A    between atoms: _6  and  _18
REMARK                            x       y       z     vdW  Elec       q    Type
REMARK                         _______ _______ _______ _____ _____    ______ ____
ROOT
ATOM      1  C   UNL     1     -16.686   5.654  -9.125  0.00  0.00    +0.123 A 
ATOM      2  C   UNL     1     -17.330   5.158  -7.987  0.00  0.00    -0.008 A 
ATOM      3  C   UNL     1     -17.975   6.088  -6.997  0.00  0.00    +0.047 C 
ATOM      4  C   UNL     1     -17.329   3.772  -7.745  0.00  0.00    +0.015 A 
ATOM      5  C   UNL     1     -16.734   2.875  -8.635  0.00  0.00    -0.023 A 
ATOM      6  C   UNL     1     -16.111   3.409  -9.778  0.00  0.00    +0.015 A 
ATOM      7  C   UNL     1     -16.075   4.791 -10.039  0.00  0.00    -0.008 A 
ATOM      8  C   UNL     1     -15.372   5.286 -11.271  0.00  0.00    +0.047 C 
ENDROOT
BRANCH   5   9
ATOM      9  C   UNL     1     -16.671   1.406  -8.456  0.00  0.00    +0.028 C 
ATOM     10  C   UNL     1     -16.232   0.617  -7.463  0.00  0.00    +0.077 C 
ATOM     11  C   UNL     1     -16.305  -0.870  -7.600  0.00  0.00    +0.256 C 
ATOM     12  N   UNL     1     -15.781  -1.466  -6.489  0.00  0.00    -0.270 N 
ATOM     13  H   UNL     1     -15.747  -2.472  -6.423  0.00  0.00    +0.156 HD
ATOM     14  C   UNL     1     -15.313  -0.665  -5.495  0.00  0.00    +0.118 C 
ATOM     15  S   UNL     1     -14.636  -1.235  -4.098  0.00  0.00    -0.027 S 
ATOM     16  O   UNL     1     -16.761  -1.475  -8.556  0.00  0.00    -0.269 OA
ATOM     17  S   UNL     1     -15.541   1.010  -5.935  0.00  0.00    -0.061 S 
ENDBRANCH   5   9
BRANCH   1  18
ATOM     18  O   UNL     1     -16.678   7.013  -9.296  0.00  0.00    -0.506 OA
ATOM     19  H   UNL     1     -17.160   7.243 -10.105  0.00  0.00    +0.292 HD
ENDBRANCH   1  18
TORSDOF 2
ENDMDL
MODEL 5
REMARK VINA RESULT:      -6.3      1.918      2.120
REMARK  Name = min_compound922.pdb
REMARK  4 active torsions:
REMARK  status: ('A' for Active; 'I' for Inactive)
REMARK    1  A    between atoms: _1  and  _15
REMARK    2  A    between atoms: _2  and  _16
REMARK    3  A    between atoms: _3  and  _17
REMARK    4  A    between atoms: _6  and  _18
REMARK                            x       y       z     vdW  Elec       q    Type
REMARK                         _______ _______ _______ _____ _____    ______ ____
ROOT
ATOM      1  C   UNL     1     -10.812   1.674 -15.899  0.00  0.00    +0.123 A 
ATOM      2  C   UNL     1     -11.691   0.729 -16.439  0.00  0.00    -0.008 A 
ATOM      3  C   UNL     1     -11.417  -0.744 -16.311  0.00  0.00    +0.047 C 
ATOM      4  C   UNL     1     -12.822   1.170 -17.151  0.00  0.00    +0.015 A 
ATOM      5  C   UNL     1     -13.108   2.529 -17.301  0.00  0.00    -0.023 A 
ATOM      6  C   UNL     1     -12.211   3.450 -16.730  0.00  0.00    +0.015 A 
ATOM      7  C   UNL     1     -11.060   3.043 -16.029  0.00  0.00    -0.008 A 
ATOM      8  C   UNL     1     -10.139   4.087 -15.466  0.00  0.00    +0.047 C 
ENDROOT
BRANCH   5   9
ATOM      9  C   UNL     1     -14.263   3.084 -18.045  0.00  0.00    +0.028 C 
ATOM     10  C   UNL     1     -14.633   3.045 -19.334  0.00  0.00    +0.077 C 
ATOM     11  C   UNL     1     -15.885   3.730 -19.775  0.00  0.00    +0.256 C 
ATOM     12  N   UNL     1     -16.047   3.583 -21.123  0.00  0.00    -0.270 N 
ATOM     13  H   UNL     1     -16.844   3.995 -21.584  0.00  0.00    +0.156 HD
ATOM     14  C   UNL     1     -15.108   2.876 -21.805  0.00  0.00    +0.118 C 
ATOM     15  S   UNL     1     -15.155   2.625 -23.440  0.00  0.00    -0.027 S 
ATOM     16  O   UNL     1     -16.658   4.336 -19.051  0.00  0.00    -0.269 OA
ATOM     17  S   UNL     1     -13.886   2.301 -20.697  0.00  0.00    -0.061 S 
ENDBRANCH   5   9
BRANCH   1  18
ATOM     18  O   UNL     1      -9.705   1.197 -15.250  0.00  0.00    -0.506 OA
ATOM     19  H   UNL     1      -9.058   0.880 -15.898  0.00  0.00    +0.292 HD
ENDBRANCH   1  18
TORSDOF 2
ENDMDL
MODEL 6
REMARK VINA RESULT:      -6.3     10.669     12.155
REMARK  Name = min_compound922.pdb
REMARK  4 active torsions:
REMARK  status: ('A' for Active; 'I' for Inactive)
REMARK    1  A    between atoms: _1  and  _15
REMARK    2  A    between atoms: _2  and  _16
REMARK    3  A    between atoms: _3  and  _17
REMARK    4  A    between atoms: _6  and  _18
REMARK                            x       y       z     vdW  Elec       q    Type
REMARK                         _______ _______ _______ _____ _____    ______ ____
ROOT
ATOM      1  C   UNL     1     -16.696   5.708  -9.132  0.00  0.00    +0.123 A 
ATOM      2  C   UNL     1     -16.088   4.919 -10.115  0.00  0.00    -0.008 A 
ATOM      3  C   UNL     1     -15.514   5.542 -11.358  0.00  0.00    +0.047 C 
ATOM      4  C   UNL     1     -16.058   3.522  -9.956  0.00  0.00    +0.015 A 
ATOM      5  C   UNL     1     -16.588   2.904  -8.820  0.00  0.00    -0.023 A 
ATOM      6  C   UNL     1     -17.177   3.730  -7.844  0.00  0.00    +0.015 A 
ATOM      7  C   UNL     1     -17.241   5.129  -7.983  0.00  0.00    -0.008 A 
ATOM      8  C   UNL     1     -17.904   5.940  -6.907  0.00  0.00    +0.047 C 
ENDROOT
BRANCH   5   9
ATOM      9  C   UNL     1     -16.616   1.443  -8.575  0.00  0.00    +0.028 C 
ATOM     10  C   UNL     1     -16.187   0.671  -7.564  0.00  0.00    +0.077 C 
ATOM     11  C   UNL     1     -16.366  -0.811  -7.627  0.00  0.00    +0.256 C 
ATOM     12  N   UNL     1     -15.833  -1.392  -6.512  0.00  0.00    -0.270 N 
ATOM     13  H   UNL     1     -15.864  -2.394  -6.400  0.00  0.00    +0.156 HD
ATOM     14  C   UNL     1     -15.269  -0.582  -5.578  0.00  0.00    +0.118 C 
ATOM     15  S   UNL     1     -14.570  -1.135  -4.184  0.00  0.00    -0.027 S 
ATOM     16  O   UNL     1     -16.904  -1.426  -8.534  0.00  0.00    -0.269 OA
ATOM     17  S   UNL     1     -15.403   1.083  -6.087  0.00  0.00    -0.061 S 
ENDBRANCH   5   9
BRANCH   1  18
ATOM     18  O   UNL     1     -16.736   7.058  -9.351  0.00  0.00    -0.506 OA
ATOM     19  H   UNL     1     -15.864   7.369  -9.636  0.00  0.00    +0.292 HD
ENDBRANCH   1  18
TORSDOF 2
ENDMDL
MODEL 7
REMARK VINA RESULT:      -6.3      4.394      4.688
REMARK  Name = min_compound922.pdb
REMARK  4 active torsions:
REMARK  status: ('A' for Active; 'I' for Inactive)
REMARK    1  A    between atoms: _1  and  _15
REMARK    2  A    between atoms: _2  and  _16
REMARK    3  A    between atoms: _3  and  _17
REMARK    4  A    between atoms: _6  and  _18
REMARK                            x       y       z     vdW  Elec       q    Type
REMARK                         _______ _______ _______ _____ _____    ______ ____
ROOT
ATOM      1  C   UNL     1     -11.098   2.010 -16.266  0.00  0.00    +0.123 A 
ATOM      2  C   UNL     1     -12.233   1.202 -16.387  0.00  0.00    -0.008 A 
ATOM      3  C   UNL     1     -12.109  -0.261 -16.713  0.00  0.00    +0.047 C 
ATOM      4  C   UNL     1     -13.508   1.780 -16.246  0.00  0.00    +0.015 A 
ATOM      5  C   UNL     1     -13.667   3.137 -15.952  0.00  0.00    -0.023 A 
ATOM      6  C   UNL     1     -12.502   3.915 -15.821  0.00  0.00    +0.015 A 
ATOM      7  C   UNL     1     -11.213   3.372 -15.976  0.00  0.00    -0.008 A 
ATOM      8  C   UNL     1     -10.019   4.273 -15.841  0.00  0.00    +0.047 C 
ENDROOT
BRANCH   5   9
ATOM      9  C   UNL     1     -14.966   3.834 -15.803  0.00  0.00    +0.028 C 
ATOM     10  C   UNL     1     -15.588   4.408 -14.762  0.00  0.00    +0.077 C 
ATOM     11  C   UNL     1     -16.931   5.038 -14.947  0.00  0.00    +0.256 C 
ATOM     12  N   UNL     1     -17.382   5.531 -13.757  0.00  0.00    -0.270 N 
ATOM     13  H   UNL     1     -18.282   5.985 -13.706  0.00  0.00    +0.156 HD
ATOM     14  C   UNL     1     -16.587   5.388 -12.664  0.00  0.00    +0.118 C 
ATOM     15  S   UNL     1     -17.000   5.916 -11.151  0.00  0.00    -0.027 S 
ATOM     16  O   UNL     1     -17.546   5.108 -15.999  0.00  0.00    -0.269 OA
ATOM     17  S   UNL     1     -15.108   4.576 -13.116  0.00  0.00    -0.061 S 
ENDBRANCH   5   9
BRANCH   1  18
ATOM     18  O   UNL     1      -9.881   1.410 -16.451  0.00  0.00    -0.506 OA
ATOM     19  H   UNL     1      -9.455   1.772 -17.242  0.00  0.00    +0.292 HD
ENDBRANCH   1  18
TORSDOF 2
ENDMDL
MODEL 8
REMARK VINA RESULT:      -6.2     15.239     17.156
REMARK  Name = min_compound922.pdb
REMARK  4 active torsions:
REMARK  status: ('A' for Active; 'I' for Inactive)
REMARK    1  A    between atoms: _1  and  _15
REMARK    2  A    between atoms: _2  and  _16
REMARK    3  A    between atoms: _3  and  _17
REMARK    4  A    between atoms: _6  and  _18
REMARK                            x       y       z     vdW  Elec       q    Type
REMARK                         _______ _______ _______ _____ _____    ______ ____
ROOT
ATOM      1  C   UNL     1     -14.289   0.630  -5.185  0.00  0.00    +0.123 A 
ATOM      2  C   UNL     1     -13.901   1.010  -3.895  0.00  0.00    -0.008 A 
ATOM      3  C   UNL     1     -13.352   2.385  -3.627  0.00  0.00    +0.047 C 
ATOM      4  C   UNL     1     -13.984   0.075  -2.848  0.00  0.00    +0.015 A 
ATOM      5  C   UNL     1     -14.480  -1.215  -3.056  0.00  0.00    -0.023 A 
ATOM      6  C   UNL     1     -14.877  -1.556  -4.363  0.00  0.00    +0.015 A 
ATOM      7  C   UNL     1     -14.788  -0.651  -5.437  0.00  0.00    -0.008 A 
ATOM      8  C   UNL     1     -15.212  -1.097  -6.807  0.00  0.00    +0.047 C 
ENDROOT
BRANCH   5   9
ATOM      9  C   UNL     1     -14.589  -2.268  -2.021  0.00  0.00    +0.028 C 
ATOM     10  C   UNL     1     -15.519  -2.561  -1.099  0.00  0.00    +0.077 C 
ATOM     11  C   UNL     1     -15.320  -3.719  -0.176  0.00  0.00    +0.256 C 
ATOM     12  N   UNL     1     -16.372  -3.810   0.690  0.00  0.00    -0.270 N 
ATOM     13  H   UNL     1     -16.390  -4.538   1.388  0.00  0.00    +0.156 HD
ATOM     14  C   UNL     1     -17.372  -2.898   0.577  0.00  0.00    +0.118 C 
ATOM     15  S   UNL     1     -18.703  -2.867   1.560  0.00  0.00    -0.027 S 
ATOM     16  O   UNL     1     -14.365  -4.478  -0.181  0.00  0.00    -0.269 OA
ATOM     17  S   UNL     1     -17.022  -1.801  -0.736  0.00  0.00    -0.061 S 
ENDBRANCH   5   9
BRANCH   1  18
ATOM     18  O   UNL     1     -14.152   1.562  -6.178  0.00  0.00    -0.506 OA
ATOM     19  H   UNL     1     -15.025   1.883  -6.448  0.00  0.00    +0.292 HD
ENDBRANCH   1  18
TORSDOF 2
ENDMDL
MODEL 9
REMARK VINA RESULT:      -6.1      2.817      2.978
REMARK  Name = min_compound922.pdb
REMARK  4 active torsions:
REMARK  status: ('A' for Active; 'I' for Inactive)
REMARK    1  A    between atoms: _1  and  _15
REMARK    2  A    between atoms: _2  and  _16
REMARK    3  A    between atoms: _3  and  _17
REMARK    4  A    between atoms: _6  and  _18
REMARK                            x       y       z     vdW  Elec       q    Type
REMARK                         _______ _______ _______ _____ _____    ______ ____
ROOT
ATOM      1  C   UNL     1     -10.852   1.664 -15.895  0.00  0.00    +0.123 A 
ATOM      2  C   UNL     1     -11.791   0.710 -16.302  0.00  0.00    -0.008 A 
ATOM      3  C   UNL     1     -11.457  -0.756 -16.293  0.00  0.00    +0.047 C 
ATOM      4  C   UNL     1     -13.048   1.137 -16.769  0.00  0.00    +0.015 A 
ATOM      5  C   UNL     1     -13.395   2.489 -16.802  0.00  0.00    -0.023 A 
ATOM      6  C   UNL     1     -12.432   3.419 -16.369  0.00  0.00    +0.015 A 
ATOM      7  C   UNL     1     -11.158   3.027 -15.915  0.00  0.00    -0.008 A 
ATOM      8  C   UNL     1     -10.177   4.081 -15.489  0.00  0.00    +0.047 C 
ENDROOT
BRANCH   5   9
ATOM      9  C   UNL     1     -14.684   3.031 -17.291  0.00  0.00    +0.028 C 
ATOM     10  C   UNL     1     -15.870   3.257 -16.704  0.00  0.00    +0.077 C 
ATOM     11  C   UNL     1     -17.003   3.822 -17.498  0.00  0.00    +0.256 C 
ATOM     12  N   UNL     1     -18.111   3.940 -16.710  0.00  0.00    -0.270 N 
ATOM     13  H   UNL     1     -18.970   4.301 -17.096  0.00  0.00    +0.156 HD
ATOM     14  C   UNL     1     -18.013   3.557 -15.410  0.00  0.00    +0.118 C 
ATOM     15  S   UNL     1     -19.269   3.624 -14.335  0.00  0.00    -0.027 S 
ATOM     16  O   UNL     1     -16.959   4.135 -18.677  0.00  0.00    -0.269 OA
ATOM     17  S   UNL     1     -16.391   3.000 -15.082  0.00  0.00    -0.061 S 
ENDBRANCH   5   9
BRANCH   1  18
ATOM     18  O   UNL     1      -9.630   1.202 -15.487  0.00  0.00    -0.506 OA
ATOM     19  H   UNL     1      -9.071   1.029 -16.260  0.00  0.00    +0.292 HD
ENDBRANCH   1  18
TORSDOF 2
ENDMDL
