MODEL 1
REMARK VINA RESULT:      -8.1      0.000      0.000
REMARK  Name = min_compound979.pdb
REMARK  3 active torsions:
REMARK  status: ('A' for Active; 'I' for Inactive)
REMARK    1  A    between atoms: _12  and  _19
REMARK    2  A    between atoms: _14  and  _18
REMARK    3  A    between atoms: _19  and  _20
REMARK                            x       y       z     vdW  Elec       q    Type
REMARK                         _______ _______ _______ _____ _____    ______ ____
ROOT
ATOM      1  C   UNL     1     -12.403   2.097 -17.990  0.00  0.00    +0.189 C 
ATOM      2  O   UNL     1     -12.943   1.887 -19.110  0.00  0.00    -0.287 OA
ATOM      3  C   UNL     1     -11.463   1.181 -17.296  0.00  0.00    +0.025 A 
ATOM      4  C   UNL     1     -11.035  -0.036 -17.840  0.00  0.00    +0.012 A 
ATOM      5  C   UNL     1     -10.154  -0.858 -17.135  0.00  0.00    +0.001 A 
ATOM      6  C   UNL     1      -9.699  -0.470 -15.875  0.00  0.00    +0.000 A 
ATOM      7  C   UNL     1     -10.124   0.740 -15.320  0.00  0.00    +0.004 A 
ATOM      8  C   UNL     1     -10.996   1.572 -16.034  0.00  0.00    -0.036 A 
ATOM      9  C   UNL     1     -11.501   2.880 -15.473  0.00  0.00    +0.040 C 
ATOM     10  C   UNL     1     -11.606   4.073 -16.572  0.00  0.00    +0.043 C 
ATOM     11  C   UNL     1     -12.684   3.434 -17.397  0.00  0.00    +0.001 C 
ATOM     12  C   UNL     1     -13.837   4.111 -17.630  0.00  0.00    +0.015 C 
ENDROOT
BRANCH  12  13
ATOM     13  C   UNL     1     -14.198   5.481 -17.225  0.00  0.00    -0.021 A 
ATOM     14  C   UNL     1     -13.788   6.627 -17.912  0.00  0.00    +0.008 A 
ATOM     15  C   UNL     1     -14.182   7.895 -17.477  0.00  0.00    +0.004 A 
ATOM     16  C   UNL     1     -14.960   8.036 -16.326  0.00  0.00    +0.045 A 
ATOM     17  C   UNL     1     -15.339   6.908 -15.600  0.00  0.00    +0.121 A 
ATOM     18  C   UNL     1     -14.961   5.642 -16.058  0.00  0.00    +0.053 A 
BRANCH  17  19
ATOM     19  O   UNL     1     -16.075   6.908 -14.446  0.00  0.00    -0.495 OA
ATOM     20  C   UNL     1     -15.751   5.920 -13.477  0.00  0.00    +0.277 C 
ENDBRANCH  17  19
ENDBRANCH  12  13
TORSDOF 2
ENDMDL
MODEL 2
REMARK VINA RESULT:      -7.9      1.748      2.375
REMARK  Name = min_compound979.pdb
REMARK  3 active torsions:
REMARK  status: ('A' for Active; 'I' for Inactive)
REMARK    1  A    between atoms: _12  and  _19
REMARK    2  A    between atoms: _14  and  _18
REMARK    3  A    between atoms: _19  and  _20
REMARK                            x       y       z     vdW  Elec       q    Type
REMARK                         _______ _______ _______ _____ _____    ______ ____
ROOT
ATOM      1  C   UNL     1     -11.130   3.500 -16.204  0.00  0.00    +0.189 C 
ATOM      2  O   UNL     1     -10.291   4.262 -15.651  0.00  0.00    -0.287 OA
ATOM      3  C   UNL     1     -11.082   2.016 -16.209  0.00  0.00    +0.025 A 
ATOM      4  C   UNL     1     -10.089   1.278 -15.552  0.00  0.00    +0.012 A 
ATOM      5  C   UNL     1     -10.094  -0.117 -15.599  0.00  0.00    +0.001 A 
ATOM      6  C   UNL     1     -11.091  -0.785 -16.309  0.00  0.00    +0.000 A 
ATOM      7  C   UNL     1     -12.083  -0.059 -16.972  0.00  0.00    +0.004 A 
ATOM      8  C   UNL     1     -12.087   1.341 -16.913  0.00  0.00    -0.036 A 
ATOM      9  C   UNL     1     -13.125   2.174 -17.627  0.00  0.00    +0.040 C 
ATOM     10  C   UNL     1     -13.622   3.472 -16.785  0.00  0.00    +0.043 C 
ATOM     11  C   UNL     1     -12.304   4.190 -16.806  0.00  0.00    +0.001 C 
ATOM     12  C   UNL     1     -12.238   5.450 -17.303  0.00  0.00    +0.015 C 
ENDROOT
BRANCH  12  13
ATOM     13  C   UNL     1     -13.332   6.301 -17.804  0.00  0.00    -0.021 A 
ATOM     14  C   UNL     1     -13.794   6.273 -19.123  0.00  0.00    +0.008 A 
ATOM     15  C   UNL     1     -14.847   7.100 -19.524  0.00  0.00    +0.004 A 
ATOM     16  C   UNL     1     -15.427   7.992 -18.620  0.00  0.00    +0.045 A 
ATOM     17  C   UNL     1     -14.950   8.068 -17.313  0.00  0.00    +0.121 A 
ATOM     18  C   UNL     1     -13.912   7.219 -16.914  0.00  0.00    +0.053 A 
BRANCH  17  19
ATOM     19  O   UNL     1     -15.409   8.913 -16.339  0.00  0.00    -0.495 OA
ATOM     20  C   UNL     1     -15.539   8.375 -15.030  0.00  0.00    +0.277 C 
ENDBRANCH  17  19
ENDBRANCH  12  13
TORSDOF 2
ENDMDL
MODEL 3
REMARK VINA RESULT:      -7.6      2.297      3.416
REMARK  Name = min_compound979.pdb
REMARK  3 active torsions:
REMARK  status: ('A' for Active; 'I' for Inactive)
REMARK    1  A    between atoms: _12  and  _19
REMARK    2  A    between atoms: _14  and  _18
REMARK    3  A    between atoms: _19  and  _20
REMARK                            x       y       z     vdW  Elec       q    Type
REMARK                         _______ _______ _______ _____ _____    ______ ____
ROOT
ATOM      1  C   UNL     1     -11.070   3.424 -16.171  0.00  0.00    +0.189 C 
ATOM      2  O   UNL     1     -10.228   4.174 -15.606  0.00  0.00    -0.287 OA
ATOM      3  C   UNL     1     -11.035   1.940 -16.186  0.00  0.00    +0.025 A 
ATOM      4  C   UNL     1     -10.053   1.188 -15.530  0.00  0.00    +0.012 A 
ATOM      5  C   UNL     1     -10.070  -0.206 -15.587  0.00  0.00    +0.001 A 
ATOM      6  C   UNL     1     -11.068  -0.860 -16.309  0.00  0.00    +0.000 A 
ATOM      7  C   UNL     1     -12.050  -0.120 -16.972  0.00  0.00    +0.004 A 
ATOM      8  C   UNL     1     -12.042   1.279 -16.903  0.00  0.00    -0.036 A 
ATOM      9  C   UNL     1     -13.068   2.127 -17.616  0.00  0.00    +0.040 C 
ATOM     10  C   UNL     1     -13.558   3.423 -16.767  0.00  0.00    +0.043 C 
ATOM     11  C   UNL     1     -12.235   4.129 -16.774  0.00  0.00    +0.001 C 
ATOM     12  C   UNL     1     -12.154   5.393 -17.260  0.00  0.00    +0.015 C 
ENDROOT
BRANCH  12  13
ATOM     13  C   UNL     1     -13.238   6.257 -17.762  0.00  0.00    -0.021 A 
ATOM     14  C   UNL     1     -13.972   7.129 -16.952  0.00  0.00    +0.008 A 
ATOM     15  C   UNL     1     -14.977   7.930 -17.500  0.00  0.00    +0.004 A 
ATOM     16  C   UNL     1     -15.286   7.843 -18.859  0.00  0.00    +0.045 A 
ATOM     17  C   UNL     1     -14.597   6.946 -19.674  0.00  0.00    +0.121 A 
ATOM     18  C   UNL     1     -13.576   6.166 -19.121  0.00  0.00    +0.053 A 
BRANCH  17  19
ATOM     19  O   UNL     1     -14.818   6.744 -21.010  0.00  0.00    -0.495 OA
ATOM     20  C   UNL     1     -13.841   7.253 -21.907  0.00  0.00    +0.277 C 
ENDBRANCH  17  19
ENDBRANCH  12  13
TORSDOF 2
ENDMDL
MODEL 4
REMARK VINA RESULT:      -7.3      1.246      2.042
REMARK  Name = min_compound979.pdb
REMARK  3 active torsions:
REMARK  status: ('A' for Active; 'I' for Inactive)
REMARK    1  A    between atoms: _12  and  _19
REMARK    2  A    between atoms: _14  and  _18
REMARK    3  A    between atoms: _19  and  _20
REMARK                            x       y       z     vdW  Elec       q    Type
REMARK                         _______ _______ _______ _____ _____    ______ ____
ROOT
ATOM      1  C   UNL     1     -12.471   1.880 -17.941  0.00  0.00    +0.189 C 
ATOM      2  O   UNL     1     -12.997   1.701 -19.073  0.00  0.00    -0.287 OA
ATOM      3  C   UNL     1     -11.428   1.020 -17.325  0.00  0.00    +0.025 A 
ATOM      4  C   UNL     1     -10.876  -0.096 -17.966  0.00  0.00    +0.012 A 
ATOM      5  C   UNL     1      -9.903  -0.869 -17.331  0.00  0.00    +0.001 A 
ATOM      6  C   UNL     1      -9.478  -0.535 -16.046  0.00  0.00    +0.000 A 
ATOM      7  C   UNL     1     -10.026   0.574 -15.395  0.00  0.00    +0.004 A 
ATOM      8  C   UNL     1     -10.992   1.359 -16.037  0.00  0.00    -0.036 A 
ATOM      9  C   UNL     1     -11.630   2.556 -15.372  0.00  0.00    +0.040 C 
ATOM     10  C   UNL     1     -11.878   3.812 -16.372  0.00  0.00    +0.043 C 
ATOM     11  C   UNL     1     -12.889   3.127 -17.243  0.00  0.00    +0.001 C 
ATOM     12  C   UNL     1     -14.111   3.689 -17.418  0.00  0.00    +0.015 C 
ENDROOT
BRANCH  12  13
ATOM     13  C   UNL     1     -14.615   4.975 -16.903  0.00  0.00    -0.021 A 
ATOM     14  C   UNL     1     -15.075   5.160 -15.596  0.00  0.00    +0.008 A 
ATOM     15  C   UNL     1     -15.525   6.413 -15.173  0.00  0.00    +0.004 A 
ATOM     16  C   UNL     1     -15.556   7.490 -16.062  0.00  0.00    +0.045 A 
ATOM     17  C   UNL     1     -15.145   7.314 -17.383  0.00  0.00    +0.121 A 
ATOM     18  C   UNL     1     -14.673   6.061 -17.790  0.00  0.00    +0.053 A 
BRANCH  17  19
ATOM     19  O   UNL     1     -15.150   8.273 -18.359  0.00  0.00    -0.495 OA
ATOM     20  C   UNL     1     -16.387   8.518 -19.014  0.00  0.00    +0.277 C 
ENDBRANCH  17  19
ENDBRANCH  12  13
TORSDOF 2
ENDMDL
MODEL 5
REMARK VINA RESULT:      -7.1      1.510      1.741
REMARK  Name = min_compound979.pdb
REMARK  3 active torsions:
REMARK  status: ('A' for Active; 'I' for Inactive)
REMARK    1  A    between atoms: _12  and  _19
REMARK    2  A    between atoms: _14  and  _18
REMARK    3  A    between atoms: _19  and  _20
REMARK                            x       y       z     vdW  Elec       q    Type
REMARK                         _______ _______ _______ _____ _____    ______ ____
ROOT
ATOM      1  C   UNL     1     -13.596   2.149 -16.251  0.00  0.00    +0.189 C 
ATOM      2  O   UNL     1     -14.684   1.579 -15.963  0.00  0.00    -0.287 OA
ATOM      3  C   UNL     1     -12.318   1.465 -16.570  0.00  0.00    +0.025 A 
ATOM      4  C   UNL     1     -12.184   0.072 -16.620  0.00  0.00    +0.012 A 
ATOM      5  C   UNL     1     -10.953  -0.513 -16.920  0.00  0.00    +0.001 A 
ATOM      6  C   UNL     1      -9.842   0.294 -17.166  0.00  0.00    +0.000 A 
ATOM      7  C   UNL     1      -9.962   1.685 -17.113  0.00  0.00    +0.004 A 
ATOM      8  C   UNL     1     -11.202   2.272 -16.827  0.00  0.00    -0.036 A 
ATOM      9  C   UNL     1     -11.383   3.769 -16.739  0.00  0.00    +0.040 C 
ATOM     10  C   UNL     1     -12.783   4.302 -17.368  0.00  0.00    +0.043 C 
ATOM     11  C   UNL     1     -13.675   3.631 -16.365  0.00  0.00    +0.001 C 
ATOM     12  C   UNL     1     -14.558   4.376 -15.653  0.00  0.00    +0.015 C 
ENDROOT
BRANCH  12  13
ATOM     13  C   UNL     1     -14.838   5.819 -15.755  0.00  0.00    -0.021 A 
ATOM     14  C   UNL     1     -14.409   6.619 -16.818  0.00  0.00    +0.008 A 
ATOM     15  C   UNL     1     -14.725   7.979 -16.855  0.00  0.00    +0.004 A 
ATOM     16  C   UNL     1     -15.441   8.567 -15.810  0.00  0.00    +0.045 A 
ATOM     17  C   UNL     1     -15.837   7.795 -14.718  0.00  0.00    +0.121 A 
ATOM     18  C   UNL     1     -15.538   6.429 -14.703  0.00  0.00    +0.053 A 
BRANCH  17  19
ATOM     19  O   UNL     1     -16.518   8.249 -13.620  0.00  0.00    -0.495 OA
ATOM     20  C   UNL     1     -17.710   7.557 -13.273  0.00  0.00    +0.277 C 
ENDBRANCH  17  19
ENDBRANCH  12  13
TORSDOF 2
ENDMDL
MODEL 6
REMARK VINA RESULT:      -7.0      2.353      7.169
REMARK  Name = min_compound979.pdb
REMARK  3 active torsions:
REMARK  status: ('A' for Active; 'I' for Inactive)
REMARK    1  A    between atoms: _12  and  _19
REMARK    2  A    between atoms: _14  and  _18
REMARK    3  A    between atoms: _19  and  _20
REMARK                            x       y       z     vdW  Elec       q    Type
REMARK                         _______ _______ _______ _____ _____    ______ ____
ROOT
ATOM      1  C   UNL     1     -15.535   5.018 -14.906  0.00  0.00    +0.189 C 
ATOM      2  O   UNL     1     -15.061   6.136 -15.248  0.00  0.00    -0.287 OA
ATOM      3  C   UNL     1     -16.747   4.810 -14.074  0.00  0.00    +0.025 A 
ATOM      4  C   UNL     1     -17.537   5.860 -13.591  0.00  0.00    +0.012 A 
ATOM      5  C   UNL     1     -18.663   5.600 -12.808  0.00  0.00    +0.001 A 
ATOM      6  C   UNL     1     -19.003   4.284 -12.494  0.00  0.00    +0.000 A 
ATOM      7  C   UNL     1     -18.218   3.229 -12.966  0.00  0.00    +0.004 A 
ATOM      8  C   UNL     1     -17.097   3.489 -13.765  0.00  0.00    -0.036 A 
ATOM      9  C   UNL     1     -16.205   2.386 -14.284  0.00  0.00    +0.040 C 
ATOM     10  C   UNL     1     -15.675   2.626 -15.802  0.00  0.00    +0.043 C 
ATOM     11  C   UNL     1     -14.845   3.836 -15.492  0.00  0.00    +0.001 C 
ATOM     12  C   UNL     1     -13.527   3.842 -15.813  0.00  0.00    +0.015 C 
ENDROOT
BRANCH  12  13
ATOM     13  C   UNL     1     -12.745   2.806 -16.511  0.00  0.00    -0.021 A 
ATOM     14  C   UNL     1     -12.986   2.409 -17.829  0.00  0.00    +0.008 A 
ATOM     15  C   UNL     1     -12.193   1.430 -18.432  0.00  0.00    +0.004 A 
ATOM     16  C   UNL     1     -11.172   0.807 -17.712  0.00  0.00    +0.045 A 
ATOM     17  C   UNL     1     -10.945   1.155 -16.381  0.00  0.00    +0.121 A 
ATOM     18  C   UNL     1     -11.729   2.155 -15.795  0.00  0.00    +0.053 A 
BRANCH  17  19
ATOM     19  O   UNL     1     -10.000   0.606 -15.558  0.00  0.00    -0.495 OA
ATOM     20  C   UNL     1      -9.629  -0.741 -15.814  0.00  0.00    +0.277 C 
ENDBRANCH  17  19
ENDBRANCH  12  13
TORSDOF 2
ENDMDL
MODEL 7
REMARK VINA RESULT:      -6.9      1.616      2.583
REMARK  Name = min_compound979.pdb
REMARK  3 active torsions:
REMARK  status: ('A' for Active; 'I' for Inactive)
REMARK    1  A    between atoms: _12  and  _19
REMARK    2  A    between atoms: _14  and  _18
REMARK    3  A    between atoms: _19  and  _20
REMARK                            x       y       z     vdW  Elec       q    Type
REMARK                         _______ _______ _______ _____ _____    ______ ____
ROOT
ATOM      1  C   UNL     1     -13.675   1.813 -16.043  0.00  0.00    +0.189 C 
ATOM      2  O   UNL     1     -14.737   1.133 -16.028  0.00  0.00    -0.287 OA
ATOM      3  C   UNL     1     -12.329   1.310 -16.417  0.00  0.00    +0.025 A 
ATOM      4  C   UNL     1     -12.091  -0.004 -16.839  0.00  0.00    +0.012 A 
ATOM      5  C   UNL     1     -10.800  -0.420 -17.171  0.00  0.00    +0.001 A 
ATOM      6  C   UNL     1      -9.736   0.476 -17.078  0.00  0.00    +0.000 A 
ATOM      7  C   UNL     1      -9.961   1.788 -16.654  0.00  0.00    +0.004 A 
ATOM      8  C   UNL     1     -11.258   2.210 -16.334  0.00  0.00    -0.036 A 
ATOM      9  C   UNL     1     -11.555   3.610 -15.852  0.00  0.00    +0.040 C 
ATOM     10  C   UNL     1     -12.938   4.231 -16.438  0.00  0.00    +0.043 C 
ATOM     11  C   UNL     1     -13.852   3.262 -15.749  0.00  0.00    +0.001 C 
ATOM     12  C   UNL     1     -14.839   3.731 -14.945  0.00  0.00    +0.015 C 
ENDROOT
BRANCH  12  13
ATOM     13  C   UNL     1     -15.215   5.129 -14.669  0.00  0.00    -0.021 A 
ATOM     14  C   UNL     1     -15.591   5.596 -13.406  0.00  0.00    +0.008 A 
ATOM     15  C   UNL     1     -15.920   6.940 -13.215  0.00  0.00    +0.004 A 
ATOM     16  C   UNL     1     -15.915   7.828 -14.293  0.00  0.00    +0.045 A 
ATOM     17  C   UNL     1     -15.589   7.372 -15.569  0.00  0.00    +0.121 A 
ATOM     18  C   UNL     1     -15.236   6.029 -15.745  0.00  0.00    +0.053 A 
BRANCH  17  19
ATOM     19  O   UNL     1     -15.571   8.126 -16.711  0.00  0.00    -0.495 OA
ATOM     20  C   UNL     1     -14.464   7.948 -17.582  0.00  0.00    +0.277 C 
ENDBRANCH  17  19
ENDBRANCH  12  13
TORSDOF 2
ENDMDL
MODEL 8
REMARK VINA RESULT:      -6.9      7.461     10.225
REMARK  Name = min_compound979.pdb
REMARK  3 active torsions:
REMARK  status: ('A' for Active; 'I' for Inactive)
REMARK    1  A    between atoms: _12  and  _19
REMARK    2  A    between atoms: _14  and  _18
REMARK    3  A    between atoms: _19  and  _20
REMARK                            x       y       z     vdW  Elec       q    Type
REMARK                         _______ _______ _______ _____ _____    ______ ____
ROOT
ATOM      1  C   UNL     1     -16.707   2.426  -6.008  0.00  0.00    +0.189 C 
ATOM      2  O   UNL     1     -17.636   3.113  -5.502  0.00  0.00    -0.287 OA
ATOM      3  C   UNL     1     -15.764   1.558  -5.257  0.00  0.00    +0.025 A 
ATOM      4  C   UNL     1     -15.826   1.377  -3.870  0.00  0.00    +0.012 A 
ATOM      5  C   UNL     1     -14.907   0.552  -3.221  0.00  0.00    +0.001 A 
ATOM      6  C   UNL     1     -13.912  -0.093  -3.954  0.00  0.00    +0.000 A 
ATOM      7  C   UNL     1     -13.837   0.085  -5.338  0.00  0.00    +0.004 A 
ATOM      8  C   UNL     1     -14.769   0.901  -5.992  0.00  0.00    -0.036 A 
ATOM      9  C   UNL     1     -14.722   1.143  -7.483  0.00  0.00    +0.040 C 
ATOM     10  C   UNL     1     -16.185   1.195  -8.189  0.00  0.00    +0.043 C 
ATOM     11  C   UNL     1     -16.652   2.440  -7.496  0.00  0.00    +0.001 C 
ATOM     12  C   UNL     1     -17.068   3.500  -8.234  0.00  0.00    +0.015 C 
ENDROOT
BRANCH  12  13
ATOM     13  C   UNL     1     -17.195   3.609  -9.698  0.00  0.00    -0.021 A 
ATOM     14  C   UNL     1     -18.370   3.319 -10.398  0.00  0.00    +0.008 A 
ATOM     15  C   UNL     1     -18.421   3.459 -11.787  0.00  0.00    +0.004 A 
ATOM     16  C   UNL     1     -17.286   3.855 -12.499  0.00  0.00    +0.045 A 
ATOM     17  C   UNL     1     -16.092   4.103 -11.824  0.00  0.00    +0.121 A 
ATOM     18  C   UNL     1     -16.059   3.984 -10.430  0.00  0.00    +0.053 A 
BRANCH  17  19
ATOM     19  O   UNL     1     -14.907   4.471 -12.400  0.00  0.00    -0.495 OA
ATOM     20  C   UNL     1     -14.810   4.338 -13.812  0.00  0.00    +0.277 C 
ENDBRANCH  17  19
ENDBRANCH  12  13
TORSDOF 2
ENDMDL
MODEL 9
REMARK VINA RESULT:      -6.6      7.703     10.369
REMARK  Name = min_compound979.pdb
REMARK  3 active torsions:
REMARK  status: ('A' for Active; 'I' for Inactive)
REMARK    1  A    between atoms: _12  and  _19
REMARK    2  A    between atoms: _14  and  _18
REMARK    3  A    between atoms: _19  and  _20
REMARK                            x       y       z     vdW  Elec       q    Type
REMARK                         _______ _______ _______ _____ _____    ______ ____
ROOT
ATOM      1  C   UNL     1     -16.833   2.234  -5.972  0.00  0.00    +0.189 C 
ATOM      2  O   UNL     1     -17.833   2.862  -5.529  0.00  0.00    -0.287 OA
ATOM      3  C   UNL     1     -15.944   1.349  -5.178  0.00  0.00    +0.025 A 
ATOM      4  C   UNL     1     -16.145   1.080  -3.818  0.00  0.00    +0.012 A 
ATOM      5  C   UNL     1     -15.270   0.243  -3.124  0.00  0.00    +0.001 A 
ATOM      6  C   UNL     1     -14.182  -0.328  -3.784  0.00  0.00    +0.000 A 
ATOM      7  C   UNL     1     -13.969  -0.062  -5.139  0.00  0.00    +0.004 A 
ATOM      8  C   UNL     1     -14.856   0.766  -5.840  0.00  0.00    -0.036 A 
ATOM      9  C   UNL     1     -14.662   1.101  -7.300  0.00  0.00    +0.040 C 
ATOM     10  C   UNL     1     -16.043   1.156  -8.154  0.00  0.00    +0.043 C 
ATOM     11  C   UNL     1     -16.624   2.342  -7.442  0.00  0.00    +0.001 C 
ATOM     12  C   UNL     1     -16.997   3.433  -8.157  0.00  0.00    +0.015 C 
ENDROOT
BRANCH  12  13
ATOM     13  C   UNL     1     -16.974   3.629  -9.618  0.00  0.00    -0.021 A 
ATOM     14  C   UNL     1     -15.845   4.053 -10.325  0.00  0.00    +0.008 A 
ATOM     15  C   UNL     1     -15.893   4.203 -11.714  0.00  0.00    +0.004 A 
ATOM     16  C   UNL     1     -17.081   3.967 -12.409  0.00  0.00    +0.045 A 
ATOM     17  C   UNL     1     -18.230   3.589 -11.716  0.00  0.00    +0.121 A 
ATOM     18  C   UNL     1     -18.165   3.417 -10.328  0.00  0.00    +0.053 A 
BRANCH  17  19
ATOM     19  O   UNL     1     -19.459   3.353 -12.268  0.00  0.00    -0.495 OA
ATOM     20  C   UNL     1     -20.496   4.269 -11.944  0.00  0.00    +0.277 C 
ENDBRANCH  17  19
ENDBRANCH  12  13
TORSDOF 2
ENDMDL
