MODEL 1
REMARK VINA RESULT:      -6.7      0.000      0.000
REMARK  Name = min_compound921.pdb
REMARK  4 active torsions:
REMARK  status: ('A' for Active; 'I' for Inactive)
REMARK    1  A    between atoms: _6  and  _7
REMARK    2  A    between atoms: _12  and  _13
REMARK    3  A    between atoms: _13  and  _17
REMARK    4  A    between atoms: _14  and  _18
REMARK                            x       y       z     vdW  Elec       q    Type
REMARK                         _______ _______ _______ _____ _____    ______ ____
ROOT
ATOM      1 CL   UNL     1     -16.309   6.266 -16.086  0.00  0.00    -0.081 Cl
ATOM      2  C   UNL     1     -14.862   5.334 -15.915  0.00  0.00    +0.065 A 
ATOM      3  C   UNL     1     -14.688   4.268 -15.015  0.00  0.00    +0.065 A 
ATOM      4  C   UNL     1     -13.513   3.487 -15.103  0.00  0.00    +0.037 A 
ATOM      5  C   UNL     1     -12.526   3.759 -16.061  0.00  0.00    -0.000 A 
ATOM      6  C   UNL     1     -12.702   4.844 -16.924  0.00  0.00    +0.011 A 
ATOM      7  C   UNL     1     -13.860   5.619 -16.853  0.00  0.00    +0.023 A 
ENDROOT
BRANCH   3   8
ATOM      8  N   UNL     1     -15.638   3.925 -14.005  0.00  0.00    -0.322 N 
ATOM      9  C   UNL     1     -15.710   4.494 -12.742  0.00  0.00    +0.091 A 
ATOM     10  C   UNL     1     -16.747   3.920 -12.040  0.00  0.00    +0.019 A 
ATOM     11  C   UNL     1     -17.365   2.990 -12.898  0.00  0.00    +0.019 A 
ATOM     12  C   UNL     1     -16.684   3.028 -14.095  0.00  0.00    +0.091 A 
ENDBRANCH   3   8
BRANCH   5  13
ATOM     13  C   UNL     1     -11.281   2.925 -16.181  0.00  0.00    +0.063 C 
ATOM     14  C   UNL     1     -10.197   3.412 -17.125  0.00  0.00    +0.068 C 
ATOM     15  N   UNL     1     -11.187   1.858 -15.436  0.00  0.00    -0.183 NA
BRANCH  15  16
ATOM     16  N   UNL     1     -10.102   1.032 -15.587  0.00  0.00    -0.191 N 
ATOM     17  H   UNL     1      -9.463   1.102 -14.807  0.00  0.00    +0.179 HD
ATOM     18  C   UNL     1     -10.253  -0.264 -16.053  0.00  0.00    +0.317 C 
ATOM     19  N   UNL     1      -9.099  -0.987 -15.969  0.00  0.00    -0.312 N 
ATOM     20  H   UNL     1      -8.393  -0.760 -15.289  0.00  0.00    +0.147 HD
ATOM     21  H   UNL     1      -9.193  -1.962 -16.226  0.00  0.00    +0.147 HD
ATOM     22  O   UNL     1     -11.256  -0.756 -16.556  0.00  0.00    -0.251 OA
ENDBRANCH  15  16
ENDBRANCH   5  13
TORSDOF 3
ENDMDL
MODEL 2
REMARK VINA RESULT:      -6.7      4.750      6.827
REMARK  Name = min_compound921.pdb
REMARK  4 active torsions:
REMARK  status: ('A' for Active; 'I' for Inactive)
REMARK    1  A    between atoms: _6  and  _7
REMARK    2  A    between atoms: _12  and  _13
REMARK    3  A    between atoms: _13  and  _17
REMARK    4  A    between atoms: _14  and  _18
REMARK                            x       y       z     vdW  Elec       q    Type
REMARK                         _______ _______ _______ _____ _____    ______ ____
ROOT
ATOM      1 CL   UNL     1     -10.360   3.836 -15.729  0.00  0.00    -0.081 Cl
ATOM      2  C   UNL     1     -11.398   3.477 -17.066  0.00  0.00    +0.065 A 
ATOM      3  C   UNL     1     -11.675   2.188 -17.550  0.00  0.00    +0.065 A 
ATOM      4  C   UNL     1     -12.674   2.032 -18.539  0.00  0.00    +0.037 A 
ATOM      5  C   UNL     1     -13.382   3.133 -19.042  0.00  0.00    -0.000 A 
ATOM      6  C   UNL     1     -13.066   4.411 -18.572  0.00  0.00    +0.011 A 
ATOM      7  C   UNL     1     -12.088   4.579 -17.591  0.00  0.00    +0.023 A 
ENDROOT
BRANCH   3   8
ATOM      8  N   UNL     1     -11.000   1.013 -17.100  0.00  0.00    -0.322 N 
ATOM      9  C   UNL     1     -11.592  -0.053 -16.440  0.00  0.00    +0.091 A 
ATOM     10  C   UNL     1     -10.638  -1.007 -16.161  0.00  0.00    +0.019 A 
ATOM     11  C   UNL     1      -9.419  -0.542 -16.692  0.00  0.00    +0.019 A 
ATOM     12  C   UNL     1      -9.671   0.680 -17.277  0.00  0.00    +0.091 A 
ENDBRANCH   3   8
BRANCH   5  13
ATOM     13  C   UNL     1     -14.461   2.981 -20.078  0.00  0.00    +0.063 C 
ATOM     14  C   UNL     1     -15.594   3.990 -20.064  0.00  0.00    +0.068 C 
ATOM     15  N   UNL     1     -14.337   2.020 -20.951  0.00  0.00    -0.183 NA
BRANCH  15  16
ATOM     16  N   UNL     1     -15.349   1.805 -21.852  0.00  0.00    -0.191 N 
ATOM     17  H   UNL     1     -16.260   1.952 -21.439  0.00  0.00    +0.179 HD
ATOM     18  C   UNL     1     -15.258   2.277 -23.152  0.00  0.00    +0.317 C 
ATOM     19  N   UNL     1     -16.422   2.126 -23.846  0.00  0.00    -0.312 N 
ATOM     20  H   UNL     1     -17.309   2.087 -23.370  0.00  0.00    +0.147 HD
ATOM     21  H   UNL     1     -16.417   2.533 -24.773  0.00  0.00    +0.147 HD
ATOM     22  O   UNL     1     -14.263   2.731 -23.705  0.00  0.00    -0.251 OA
ENDBRANCH  15  16
ENDBRANCH   5  13
TORSDOF 3
ENDMDL
MODEL 3
REMARK VINA RESULT:      -6.5      3.426      6.832
REMARK  Name = min_compound921.pdb
REMARK  4 active torsions:
REMARK  status: ('A' for Active; 'I' for Inactive)
REMARK    1  A    between atoms: _6  and  _7
REMARK    2  A    between atoms: _12  and  _13
REMARK    3  A    between atoms: _13  and  _17
REMARK    4  A    between atoms: _14  and  _18
REMARK                            x       y       z     vdW  Elec       q    Type
REMARK                         _______ _______ _______ _____ _____    ______ ____
ROOT
ATOM      1 CL   UNL     1      -9.911   4.087 -16.655  0.00  0.00    -0.081 Cl
ATOM      2  C   UNL     1     -11.574   3.613 -16.623  0.00  0.00    +0.065 A 
ATOM      3  C   UNL     1     -12.035   2.288 -16.536  0.00  0.00    +0.065 A 
ATOM      4  C   UNL     1     -13.418   2.059 -16.346  0.00  0.00    +0.037 A 
ATOM      5  C   UNL     1     -14.327   3.122 -16.251  0.00  0.00    -0.000 A 
ATOM      6  C   UNL     1     -13.853   4.430 -16.375  0.00  0.00    +0.011 A 
ATOM      7  C   UNL     1     -12.491   4.672 -16.555  0.00  0.00    +0.023 A 
ENDROOT
BRANCH   3   8
ATOM      8  N   UNL     1     -11.181   1.147 -16.630  0.00  0.00    -0.322 N 
ATOM      9  C   UNL     1     -11.169   0.235 -17.673  0.00  0.00    +0.091 A 
ATOM     10  C   UNL     1     -10.219  -0.732 -17.427  0.00  0.00    +0.019 A 
ATOM     11  C   UNL     1      -9.592  -0.397 -16.211  0.00  0.00    +0.019 A 
ATOM     12  C   UNL     1     -10.181   0.763 -15.757  0.00  0.00    +0.091 A 
ENDBRANCH   3   8
BRANCH   5  13
ATOM     13  C   UNL     1     -15.797   2.895 -16.028  0.00  0.00    +0.063 C 
ATOM     14  C   UNL     1     -16.206   2.074 -14.819  0.00  0.00    +0.068 C 
ATOM     15  N   UNL     1     -16.633   3.452 -16.861  0.00  0.00    -0.183 NA
BRANCH  15  16
ATOM     16  N   UNL     1     -17.974   3.191 -16.733  0.00  0.00    -0.191 N 
ATOM     17  H   UNL     1     -18.333   3.494 -15.837  0.00  0.00    +0.179 HD
ATOM     18  C   UNL     1     -18.849   3.430 -17.780  0.00  0.00    +0.317 C 
ATOM     19  N   UNL     1     -20.155   3.282 -17.414  0.00  0.00    -0.312 N 
ATOM     20  H   UNL     1     -20.444   3.410 -16.458  0.00  0.00    +0.147 HD
ATOM     21  H   UNL     1     -20.825   3.527 -18.132  0.00  0.00    +0.147 HD
ATOM     22  O   UNL     1     -18.558   3.687 -18.942  0.00  0.00    -0.251 OA
ENDBRANCH  15  16
ENDBRANCH   5  13
TORSDOF 3
ENDMDL
MODEL 4
REMARK VINA RESULT:      -6.4      3.035      6.260
REMARK  Name = min_compound921.pdb
REMARK  4 active torsions:
REMARK  status: ('A' for Active; 'I' for Inactive)
REMARK    1  A    between atoms: _6  and  _7
REMARK    2  A    between atoms: _12  and  _13
REMARK    3  A    between atoms: _13  and  _17
REMARK    4  A    between atoms: _14  and  _18
REMARK                            x       y       z     vdW  Elec       q    Type
REMARK                         _______ _______ _______ _____ _____    ______ ____
ROOT
ATOM      1 CL   UNL     1     -13.002   1.937 -19.449  0.00  0.00    -0.081 Cl
ATOM      2  C   UNL     1     -13.571   2.580 -17.948  0.00  0.00    +0.065 A 
ATOM      3  C   UNL     1     -13.025   2.292 -16.686  0.00  0.00    +0.065 A 
ATOM      4  C   UNL     1     -13.482   3.021 -15.563  0.00  0.00    +0.037 A 
ATOM      5  C   UNL     1     -14.464   4.013 -15.688  0.00  0.00    -0.000 A 
ATOM      6  C   UNL     1     -15.020   4.260 -16.946  0.00  0.00    +0.011 A 
ATOM      7  C   UNL     1     -14.574   3.554 -18.064  0.00  0.00    +0.023 A 
ENDROOT
BRANCH   3   8
ATOM      8  N   UNL     1     -12.026   1.294 -16.467  0.00  0.00    -0.322 N 
ATOM      9  C   UNL     1     -10.780   1.514 -15.900  0.00  0.00    +0.091 A 
ATOM     10  C   UNL     1     -10.086   0.325 -15.845  0.00  0.00    +0.019 A 
ATOM     11  C   UNL     1     -10.934  -0.674 -16.359  0.00  0.00    +0.019 A 
ATOM     12  C   UNL     1     -12.117  -0.062 -16.710  0.00  0.00    +0.091 A 
ENDBRANCH   3   8
BRANCH   5  13
ATOM     13  C   UNL     1     -14.945   4.811 -14.507  0.00  0.00    +0.063 C 
ATOM     14  C   UNL     1     -15.649   6.126 -14.788  0.00  0.00    +0.068 C 
ATOM     15  N   UNL     1     -14.768   4.307 -13.317  0.00  0.00    -0.183 NA
BRANCH  15  16
ATOM     16  N   UNL     1     -15.118   5.051 -12.219  0.00  0.00    -0.191 N 
ATOM     17  H   UNL     1     -15.214   6.033 -12.444  0.00  0.00    +0.179 HD
ATOM     18  C   UNL     1     -16.080   4.599 -11.330  0.00  0.00    +0.317 C 
ATOM     19  N   UNL     1     -16.422   5.544 -10.407  0.00  0.00    -0.312 N 
ATOM     20  H   UNL     1     -16.322   6.526 -10.607  0.00  0.00    +0.147 HD
ATOM     21  H   UNL     1     -17.180   5.276  -9.791  0.00  0.00    +0.147 HD
ATOM     22  O   UNL     1     -16.566   3.476 -11.275  0.00  0.00    -0.251 OA
ENDBRANCH  15  16
ENDBRANCH   5  13
TORSDOF 3
ENDMDL
MODEL 5
REMARK VINA RESULT:      -6.3      4.490      7.407
REMARK  Name = min_compound921.pdb
REMARK  4 active torsions:
REMARK  status: ('A' for Active; 'I' for Inactive)
REMARK    1  A    between atoms: _6  and  _7
REMARK    2  A    between atoms: _12  and  _13
REMARK    3  A    between atoms: _13  and  _17
REMARK    4  A    between atoms: _14  and  _18
REMARK                            x       y       z     vdW  Elec       q    Type
REMARK                         _______ _______ _______ _____ _____    ______ ____
ROOT
ATOM      1 CL   UNL     1     -15.724   1.683 -15.194  0.00  0.00    -0.081 Cl
ATOM      2  C   UNL     1     -15.335   3.354 -15.415  0.00  0.00    +0.065 A 
ATOM      3  C   UNL     1     -14.226   3.838 -16.130  0.00  0.00    +0.065 A 
ATOM      4  C   UNL     1     -14.126   5.228 -16.374  0.00  0.00    +0.037 A 
ATOM      5  C   UNL     1     -15.105   6.121 -15.914  0.00  0.00    -0.000 A 
ATOM      6  C   UNL     1     -16.181   5.624 -15.175  0.00  0.00    +0.011 A 
ATOM      7  C   UNL     1     -16.296   4.254 -14.933  0.00  0.00    +0.023 A 
ENDROOT
BRANCH   3   8
ATOM      8  N   UNL     1     -13.181   3.001 -16.628  0.00  0.00    -0.322 N 
ATOM      9  C   UNL     1     -13.175   2.371 -17.863  0.00  0.00    +0.091 A 
ATOM     10  C   UNL     1     -12.009   1.650 -18.004  0.00  0.00    +0.019 A 
ATOM     11  C   UNL     1     -11.247   1.862 -16.839  0.00  0.00    +0.019 A 
ATOM     12  C   UNL     1     -11.973   2.706 -16.026  0.00  0.00    +0.091 A 
ENDBRANCH   3   8
BRANCH   5  13
ATOM     13  C   UNL     1     -15.024   7.598 -16.184  0.00  0.00    +0.063 C 
ATOM     14  C   UNL     1     -14.570   8.036 -17.565  0.00  0.00    +0.068 C 
ATOM     15  N   UNL     1     -15.389   8.414 -15.233  0.00  0.00    -0.183 NA
BRANCH  15  16
ATOM     16  N   UNL     1     -15.244   9.764 -15.421  0.00  0.00    -0.191 N 
ATOM     17  H   UNL     1     -14.769   9.976 -16.290  0.00  0.00    +0.179 HD
ATOM     18  C   UNL     1     -16.283  10.638 -15.142  0.00  0.00    +0.317 C 
ATOM     19  N   UNL     1     -16.020  11.911 -15.556  0.00  0.00    -0.312 N 
ATOM     20  H   UNL     1     -15.383  12.089 -16.315  0.00  0.00    +0.147 HD
ATOM     21  H   UNL     1     -16.789  12.560 -15.440  0.00  0.00    +0.147 HD
ATOM     22  O   UNL     1     -17.319  10.385 -14.540  0.00  0.00    -0.251 OA
ENDBRANCH  15  16
ENDBRANCH   5  13
TORSDOF 3
ENDMDL
MODEL 6
REMARK VINA RESULT:      -6.3      6.042      8.638
REMARK  Name = min_compound921.pdb
REMARK  4 active torsions:
REMARK  status: ('A' for Active; 'I' for Inactive)
REMARK    1  A    between atoms: _6  and  _7
REMARK    2  A    between atoms: _12  and  _13
REMARK    3  A    between atoms: _13  and  _17
REMARK    4  A    between atoms: _14  and  _18
REMARK                            x       y       z     vdW  Elec       q    Type
REMARK                         _______ _______ _______ _____ _____    ______ ____
ROOT
ATOM      1 CL   UNL     1     -17.230   6.584  -9.511  0.00  0.00    -0.081 Cl
ATOM      2  C   UNL     1     -17.069   4.928  -9.039  0.00  0.00    +0.065 A 
ATOM      3  C   UNL     1     -16.452   3.925  -9.806  0.00  0.00    +0.065 A 
ATOM      4  C   UNL     1     -16.240   2.654  -9.222  0.00  0.00    +0.037 A 
ATOM      5  C   UNL     1     -16.638   2.381  -7.906  0.00  0.00    -0.000 A 
ATOM      6  C   UNL     1     -17.281   3.381  -7.172  0.00  0.00    +0.011 A 
ATOM      7  C   UNL     1     -17.490   4.642  -7.732  0.00  0.00    +0.023 A 
ENDROOT
BRANCH   3   8
ATOM      8  N   UNL     1     -16.022   4.114 -11.155  0.00  0.00    -0.322 N 
ATOM      9  C   UNL     1     -16.693   3.668 -12.283  0.00  0.00    +0.091 A 
ATOM     10  C   UNL     1     -15.988   4.031 -13.410  0.00  0.00    +0.019 A 
ATOM     11  C   UNL     1     -14.862   4.756 -12.978  0.00  0.00    +0.019 A 
ATOM     12  C   UNL     1     -14.917   4.812 -11.602  0.00  0.00    +0.091 A 
ENDBRANCH   3   8
BRANCH   5  13
ATOM     13  C   UNL     1     -16.401   1.042  -7.264  0.00  0.00    +0.063 C 
ATOM     14  C   UNL     1     -16.753  -0.195  -8.070  0.00  0.00    +0.068 C 
ATOM     15  N   UNL     1     -15.867   1.021  -6.074  0.00  0.00    -0.183 NA
BRANCH  15  16
ATOM     16  N   UNL     1     -15.720  -0.181  -5.431  0.00  0.00    -0.191 N 
ATOM     17  H   UNL     1     -16.422  -0.851  -5.718  0.00  0.00    +0.179 HD
ATOM     18  C   UNL     1     -14.467  -0.747  -5.256  0.00  0.00    +0.317 C 
ATOM     19  N   UNL     1     -14.531  -2.016  -4.759  0.00  0.00    -0.312 N 
ATOM     20  H   UNL     1     -15.343  -2.592  -4.910  0.00  0.00    +0.147 HD
ATOM     21  H   UNL     1     -13.638  -2.489  -4.694  0.00  0.00    +0.147 HD
ATOM     22  O   UNL     1     -13.381  -0.210  -5.442  0.00  0.00    -0.251 OA
ENDBRANCH  15  16
ENDBRANCH   5  13
TORSDOF 3
ENDMDL
MODEL 7
REMARK VINA RESULT:      -6.2      3.322      6.896
REMARK  Name = min_compound921.pdb
REMARK  4 active torsions:
REMARK  status: ('A' for Active; 'I' for Inactive)
REMARK    1  A    between atoms: _6  and  _7
REMARK    2  A    between atoms: _12  and  _13
REMARK    3  A    between atoms: _13  and  _17
REMARK    4  A    between atoms: _14  and  _18
REMARK                            x       y       z     vdW  Elec       q    Type
REMARK                         _______ _______ _______ _____ _____    ______ ____
ROOT
ATOM      1 CL   UNL     1     -11.469   4.572 -17.985  0.00  0.00    -0.081 Cl
ATOM      2  C   UNL     1     -12.787   4.257 -16.909  0.00  0.00    +0.065 A 
ATOM      3  C   UNL     1     -12.896   3.133 -16.072  0.00  0.00    +0.065 A 
ATOM      4  C   UNL     1     -13.942   3.091 -15.121  0.00  0.00    +0.037 A 
ATOM      5  C   UNL     1     -14.865   4.141 -15.005  0.00  0.00    -0.000 A 
ATOM      6  C   UNL     1     -14.759   5.233 -15.869  0.00  0.00    +0.011 A 
ATOM      7  C   UNL     1     -13.728   5.292 -16.808  0.00  0.00    +0.023 A 
ENDROOT
BRANCH   3   8
ATOM      8  N   UNL     1     -12.006   2.018 -16.127  0.00  0.00    -0.322 N 
ATOM      9  C   UNL     1     -12.243   0.831 -16.804  0.00  0.00    +0.091 A 
ATOM     10  C   UNL     1     -11.168  -0.014 -16.639  0.00  0.00    +0.019 A 
ATOM     11  C   UNL     1     -10.214   0.675 -15.866  0.00  0.00    +0.019 A 
ATOM     12  C   UNL     1     -10.739   1.918 -15.586  0.00  0.00    +0.091 A 
ENDBRANCH   3   8
BRANCH   5  13
ATOM     13  C   UNL     1     -15.969   4.120 -13.984  0.00  0.00    +0.063 C 
ATOM     14  C   UNL     1     -16.739   2.824 -13.809  0.00  0.00    +0.068 C 
ATOM     15  N   UNL     1     -16.171   5.201 -13.281  0.00  0.00    -0.183 NA
BRANCH  15  16
ATOM     16  N   UNL     1     -17.226   5.239 -12.406  0.00  0.00    -0.191 N 
ATOM     17  H   UNL     1     -17.139   4.540 -11.679  0.00  0.00    +0.179 HD
ATOM     18  C   UNL     1     -17.724   6.446 -11.943  0.00  0.00    +0.317 C 
ATOM     19  N   UNL     1     -18.647   6.285 -10.951  0.00  0.00    -0.312 N 
ATOM     20  H   UNL     1     -18.639   5.468 -10.363  0.00  0.00    +0.147 HD
ATOM     21  H   UNL     1     -18.974   7.148 -10.534  0.00  0.00    +0.147 HD
ATOM     22  O   UNL     1     -17.463   7.565 -12.368  0.00  0.00    -0.251 OA
ENDBRANCH  15  16
ENDBRANCH   5  13
TORSDOF 3
ENDMDL
MODEL 8
REMARK VINA RESULT:      -6.1      2.020      3.107
REMARK  Name = min_compound921.pdb
REMARK  4 active torsions:
REMARK  status: ('A' for Active; 'I' for Inactive)
REMARK    1  A    between atoms: _6  and  _7
REMARK    2  A    between atoms: _12  and  _13
REMARK    3  A    between atoms: _13  and  _17
REMARK    4  A    between atoms: _14  and  _18
REMARK                            x       y       z     vdW  Elec       q    Type
REMARK                         _______ _______ _______ _____ _____    ______ ____
ROOT
ATOM      1 CL   UNL     1     -17.908   4.353 -14.356  0.00  0.00    -0.081 Cl
ATOM      2  C   UNL     1     -16.398   3.897 -15.066  0.00  0.00    +0.065 A 
ATOM      3  C   UNL     1     -15.329   4.773 -15.324  0.00  0.00    +0.065 A 
ATOM      4  C   UNL     1     -14.093   4.233 -15.749  0.00  0.00    +0.037 A 
ATOM      5  C   UNL     1     -13.921   2.852 -15.920  0.00  0.00    -0.000 A 
ATOM      6  C   UNL     1     -15.006   2.002 -15.692  0.00  0.00    +0.011 A 
ATOM      7  C   UNL     1     -16.229   2.520 -15.265  0.00  0.00    +0.023 A 
ENDROOT
BRANCH   3   8
ATOM      8  N   UNL     1     -15.418   6.192 -15.183  0.00  0.00    -0.322 N 
ATOM      9  C   UNL     1     -15.252   7.114 -16.204  0.00  0.00    +0.091 A 
ATOM     10  C   UNL     1     -15.409   8.387 -15.702  0.00  0.00    +0.019 A 
ATOM     11  C   UNL     1     -15.717   8.259 -14.335  0.00  0.00    +0.019 A 
ATOM     12  C   UNL     1     -15.738   6.911 -14.047  0.00  0.00    +0.091 A 
ENDBRANCH   3   8
BRANCH   5  13
ATOM     13  C   UNL     1     -12.607   2.260 -16.351  0.00  0.00    +0.063 C 
ATOM     14  C   UNL     1     -11.344   2.825 -15.726  0.00  0.00    +0.068 C 
ATOM     15  N   UNL     1     -12.632   1.270 -17.200  0.00  0.00    -0.183 NA
BRANCH  15  16
ATOM     16  N   UNL     1     -11.447   0.770 -17.676  0.00  0.00    -0.191 N 
ATOM     17  H   UNL     1     -10.788   1.506 -17.895  0.00  0.00    +0.179 HD
ATOM     18  C   UNL     1     -10.853  -0.335 -17.087  0.00  0.00    +0.317 C 
ATOM     19  N   UNL     1      -9.603  -0.578 -17.575  0.00  0.00    -0.312 N 
ATOM     20  H   UNL     1      -9.044   0.164 -17.965  0.00  0.00    +0.147 HD
ATOM     21  H   UNL     1      -9.107  -1.330 -17.111  0.00  0.00    +0.147 HD
ATOM     22  O   UNL     1     -11.354  -1.093 -16.265  0.00  0.00    -0.251 OA
ENDBRANCH  15  16
ENDBRANCH   5  13
TORSDOF 3
ENDMDL
MODEL 9
REMARK VINA RESULT:      -6.0      3.640      6.912
REMARK  Name = min_compound921.pdb
REMARK  4 active torsions:
REMARK  status: ('A' for Active; 'I' for Inactive)
REMARK    1  A    between atoms: _6  and  _7
REMARK    2  A    between atoms: _12  and  _13
REMARK    3  A    between atoms: _13  and  _17
REMARK    4  A    between atoms: _14  and  _18
REMARK                            x       y       z     vdW  Elec       q    Type
REMARK                         _______ _______ _______ _____ _____    ______ ____
ROOT
ATOM      1 CL   UNL     1     -13.753   5.572 -17.645  0.00  0.00    -0.081 Cl
ATOM      2  C   UNL     1     -14.421   5.057 -16.134  0.00  0.00    +0.065 A 
ATOM      3  C   UNL     1     -13.959   3.968 -15.376  0.00  0.00    +0.065 A 
ATOM      4  C   UNL     1     -14.489   3.767 -14.080  0.00  0.00    +0.037 A 
ATOM      5  C   UNL     1     -15.461   4.626 -13.548  0.00  0.00    -0.000 A 
ATOM      6  C   UNL     1     -15.931   5.683 -14.331  0.00  0.00    +0.011 A 
ATOM      7  C   UNL     1     -15.413   5.897 -15.609  0.00  0.00    +0.023 A 
ENDROOT
BRANCH   3   8
ATOM      8  N   UNL     1     -12.978   3.040 -15.842  0.00  0.00    -0.322 N 
ATOM      9  C   UNL     1     -13.243   1.867 -16.531  0.00  0.00    +0.091 A 
ATOM     10  C   UNL     1     -12.058   1.227 -16.820  0.00  0.00    +0.019 A 
ATOM     11  C   UNL     1     -11.018   2.039 -16.329  0.00  0.00    +0.019 A 
ATOM     12  C   UNL     1     -11.603   3.147 -15.756  0.00  0.00    +0.091 A 
ENDBRANCH   3   8
BRANCH   5  13
ATOM     13  C   UNL     1     -16.018   4.438 -12.164  0.00  0.00    +0.063 C 
ATOM     14  C   UNL     1     -17.127   3.417 -11.986  0.00  0.00    +0.068 C 
ATOM     15  N   UNL     1     -15.488   5.130 -11.193  0.00  0.00    -0.183 NA
BRANCH  15  16
ATOM     16  N   UNL     1     -16.033   5.043  -9.938  0.00  0.00    -0.191 N 
ATOM     17  H   UNL     1     -15.409   4.584  -9.286  0.00  0.00    +0.179 HD
ATOM     18  C   UNL     1     -16.711   6.115  -9.379  0.00  0.00    +0.317 C 
ATOM     19  N   UNL     1     -17.025   5.909  -8.068  0.00  0.00    -0.312 N 
ATOM     20  H   UNL     1     -16.479   5.286  -7.495  0.00  0.00    +0.147 HD
ATOM     21  H   UNL     1     -17.450   6.703  -7.606  0.00  0.00    +0.147 HD
ATOM     22  O   UNL     1     -17.078   7.135  -9.950  0.00  0.00    -0.251 OA
ENDBRANCH  15  16
ENDBRANCH   5  13
TORSDOF 3
ENDMDL
