MODEL 1
REMARK VINA RESULT:      -6.8      0.000      0.000
REMARK  Name = min_compound94.pdb
REMARK  4 active torsions:
REMARK  status: ('A' for Active; 'I' for Inactive)
REMARK    1  A    between atoms: _2  and  _10
REMARK    2  A    between atoms: _2  and  _11
REMARK    3  A    between atoms: _7  and  _13
REMARK    4  A    between atoms: _9  and  _12
REMARK                            x       y       z     vdW  Elec       q    Type
REMARK                         _______ _______ _______ _____ _____    ______ ____
ROOT
ATOM      1  N   UNL     1     -12.620   3.436 -16.169  0.00  0.00    -0.286 NA
ATOM      2  C   UNL     1     -13.723   2.585 -16.626  0.00  0.00    +0.056 C 
ATOM      3  C   UNL     1     -14.956   2.974 -15.796  0.00  0.00    +0.036 C 
ATOM      4  C   UNL     1     -14.006   2.895 -18.102  0.00  0.00    +0.036 C 
ATOM      5  C   UNL     1     -13.396   1.107 -16.374  0.00  0.00    +0.034 C 
ATOM      6  C   UNL     1     -12.127   0.691 -17.106  0.00  0.00    +0.002 C 
ATOM      7  C   UNL     1     -10.997   1.725 -16.971  0.00  0.00    +0.064 C 
ATOM      8  C   UNL     1      -9.848   0.984 -16.276  0.00  0.00    +0.123 C 
ATOM      9  C   UNL     1     -10.048  -0.464 -16.707  0.00  0.00    +0.032 C 
ATOM     10  C   UNL     1     -11.557  -0.642 -16.606  0.00  0.00    +0.007 C 
ATOM     11  C   UNL     1     -11.399   3.031 -16.301  0.00  0.00    +0.017 C 
ATOM     12  C   UNL     1     -10.279   3.949 -15.905  0.00  0.00    +0.060 C 
ENDROOT
BRANCH   8  13
ATOM     13  O   UNL     1      -9.959   1.073 -14.861  0.00  0.00    -0.391 OA
ATOM     14  H   UNL     1     -10.353   0.244 -14.539  0.00  0.00    +0.210 HD
ENDBRANCH   8  13
TORSDOF 1
ENDMDL
MODEL 2
REMARK VINA RESULT:      -6.5      2.312      4.163
REMARK  Name = min_compound94.pdb
REMARK  4 active torsions:
REMARK  status: ('A' for Active; 'I' for Inactive)
REMARK    1  A    between atoms: _2  and  _10
REMARK    2  A    between atoms: _2  and  _11
REMARK    3  A    between atoms: _7  and  _13
REMARK    4  A    between atoms: _9  and  _12
REMARK                            x       y       z     vdW  Elec       q    Type
REMARK                         _______ _______ _______ _____ _____    ______ ____
ROOT
ATOM      1  N   UNL     1     -11.738   0.455 -17.626  0.00  0.00    -0.286 NA
ATOM      2  C   UNL     1     -10.660   0.195 -16.666  0.00  0.00    +0.056 C 
ATOM      3  C   UNL     1     -11.062  -1.059 -15.876  0.00  0.00    +0.036 C 
ATOM      4  C   UNL     1      -9.370  -0.104 -17.442  0.00  0.00    +0.036 C 
ATOM      5  C   UNL     1     -10.517   1.374 -15.694  0.00  0.00    +0.034 C 
ATOM      6  C   UNL     1     -10.204   2.666 -16.437  0.00  0.00    +0.002 C 
ATOM      7  C   UNL     1     -11.070   2.854 -17.694  0.00  0.00    +0.064 C 
ATOM      8  C   UNL     1     -11.852   4.152 -17.458  0.00  0.00    +0.123 C 
ATOM      9  C   UNL     1     -10.931   4.963 -16.555  0.00  0.00    +0.032 C 
ATOM     10  C   UNL     1     -10.412   3.918 -15.576  0.00  0.00    +0.007 C 
ATOM     11  C   UNL     1     -11.935   1.656 -18.062  0.00  0.00    +0.017 C 
ATOM     12  C   UNL     1     -12.987   1.890 -19.105  0.00  0.00    +0.060 C 
ENDROOT
BRANCH   8  13
ATOM     13  O   UNL     1     -13.076   3.899 -16.778  0.00  0.00    -0.391 OA
ATOM     14  H   UNL     1     -13.456   4.757 -16.517  0.00  0.00    +0.210 HD
ENDBRANCH   8  13
TORSDOF 1
ENDMDL
MODEL 3
REMARK VINA RESULT:      -5.8      1.586      3.093
REMARK  Name = min_compound94.pdb
REMARK  4 active torsions:
REMARK  status: ('A' for Active; 'I' for Inactive)
REMARK    1  A    between atoms: _2  and  _10
REMARK    2  A    between atoms: _2  and  _11
REMARK    3  A    between atoms: _7  and  _13
REMARK    4  A    between atoms: _9  and  _12
REMARK                            x       y       z     vdW  Elec       q    Type
REMARK                         _______ _______ _______ _____ _____    ______ ____
ROOT
ATOM      1  N   UNL     1     -12.320   3.332 -16.577  0.00  0.00    -0.286 NA
ATOM      2  C   UNL     1     -10.974   3.881 -16.768  0.00  0.00    +0.056 C 
ATOM      3  C   UNL     1     -11.118   5.097 -17.695  0.00  0.00    +0.036 C 
ATOM      4  C   UNL     1     -10.438   4.357 -15.411  0.00  0.00    +0.036 C 
ATOM      5  C   UNL     1     -10.067   2.843 -17.442  0.00  0.00    +0.034 C 
ATOM      6  C   UNL     1      -9.960   1.576 -16.602  0.00  0.00    +0.002 C 
ATOM      7  C   UNL     1     -11.318   1.113 -16.050  0.00  0.00    +0.064 C 
ATOM      8  C   UNL     1     -11.540  -0.286 -16.636  0.00  0.00    +0.123 C 
ATOM      9  C   UNL     1     -10.125  -0.820 -16.828  0.00  0.00    +0.032 C 
ATOM     10  C   UNL     1      -9.381   0.388 -17.381  0.00  0.00    +0.007 C 
ATOM     11  C   UNL     1     -12.470   2.082 -16.283  0.00  0.00    +0.017 C 
ATOM     12  C   UNL     1     -13.848   1.556 -16.009  0.00  0.00    +0.060 C 
ENDROOT
BRANCH   8  13
ATOM     13  O   UNL     1     -12.193  -0.219 -17.899  0.00  0.00    -0.391 OA
ATOM     14  H   UNL     1     -12.185   0.710 -18.189  0.00  0.00    +0.210 HD
ENDBRANCH   8  13
TORSDOF 1
ENDMDL
MODEL 4
REMARK VINA RESULT:      -5.7      1.920      3.917
REMARK  Name = min_compound94.pdb
REMARK  4 active torsions:
REMARK  status: ('A' for Active; 'I' for Inactive)
REMARK    1  A    between atoms: _2  and  _10
REMARK    2  A    between atoms: _2  and  _11
REMARK    3  A    between atoms: _7  and  _13
REMARK    4  A    between atoms: _9  and  _12
REMARK                            x       y       z     vdW  Elec       q    Type
REMARK                         _______ _______ _______ _____ _____    ______ ____
ROOT
ATOM      1  N   UNL     1      -9.940   2.210 -16.651  0.00  0.00    -0.286 NA
ATOM      2  C   UNL     1     -10.479   0.847 -16.602  0.00  0.00    +0.056 C 
ATOM      3  C   UNL     1      -9.707   0.027 -17.646  0.00  0.00    +0.036 C 
ATOM      4  C   UNL     1     -10.205   0.258 -15.211  0.00  0.00    +0.036 C 
ATOM      5  C   UNL     1     -11.969   0.850 -16.970  0.00  0.00    +0.034 C 
ATOM      6  C   UNL     1     -12.771   1.723 -16.015  0.00  0.00    +0.002 C 
ATOM      7  C   UNL     1     -12.086   3.069 -15.723  0.00  0.00    +0.064 C 
ATOM      8  C   UNL     1     -13.069   4.140 -16.212  0.00  0.00    +0.123 C 
ATOM      9  C   UNL     1     -14.430   3.474 -16.050  0.00  0.00    +0.032 C 
ATOM     10  C   UNL     1     -14.173   2.056 -16.542  0.00  0.00    +0.007 C 
ATOM     11  C   UNL     1     -10.677   3.206 -16.282  0.00  0.00    +0.017 C 
ATOM     12  C   UNL     1     -10.083   4.584 -16.259  0.00  0.00    +0.060 C 
ENDROOT
BRANCH   8  13
ATOM     13  O   UNL     1     -12.855   4.447 -17.585  0.00  0.00    -0.391 OA
ATOM     14  H   UNL     1     -12.629   3.619 -18.044  0.00  0.00    +0.210 HD
ENDBRANCH   8  13
TORSDOF 1
ENDMDL
MODEL 5
REMARK VINA RESULT:      -5.4      2.437      3.744
REMARK  Name = min_compound94.pdb
REMARK  4 active torsions:
REMARK  status: ('A' for Active; 'I' for Inactive)
REMARK    1  A    between atoms: _2  and  _10
REMARK    2  A    between atoms: _2  and  _11
REMARK    3  A    between atoms: _7  and  _13
REMARK    4  A    between atoms: _9  and  _12
REMARK                            x       y       z     vdW  Elec       q    Type
REMARK                         _______ _______ _______ _____ _____    ______ ____
ROOT
ATOM      1  N   UNL     1     -12.849   4.622 -18.943  0.00  0.00    -0.286 NA
ATOM      2  C   UNL     1     -12.415   5.741 -18.100  0.00  0.00    +0.056 C 
ATOM      3  C   UNL     1     -11.885   6.829 -19.045  0.00  0.00    +0.036 C 
ATOM      4  C   UNL     1     -13.633   6.293 -17.347  0.00  0.00    +0.036 C 
ATOM      5  C   UNL     1     -11.282   5.295 -17.165  0.00  0.00    +0.034 C 
ATOM      6  C   UNL     1     -11.730   4.153 -16.263  0.00  0.00    +0.002 C 
ATOM      7  C   UNL     1     -12.522   3.074 -17.019  0.00  0.00    +0.064 C 
ATOM      8  C   UNL     1     -11.710   1.783 -16.857  0.00  0.00    +0.123 C 
ATOM      9  C   UNL     1     -10.999   1.976 -15.523  0.00  0.00    +0.032 C 
ATOM     10  C   UNL     1     -10.559   3.433 -15.582  0.00  0.00    +0.007 C 
ATOM     11  C   UNL     1     -12.867   3.423 -18.461  0.00  0.00    +0.017 C 
ATOM     12  C   UNL     1     -13.392   2.303 -19.309  0.00  0.00    +0.060 C 
ENDROOT
BRANCH   8  13
ATOM     13  O   UNL     1     -10.742   1.651 -17.891  0.00  0.00    -0.391 OA
ATOM     14  H   UNL     1      -9.861   1.763 -17.492  0.00  0.00    +0.210 HD
ENDBRANCH   8  13
TORSDOF 1
ENDMDL
MODEL 6
REMARK VINA RESULT:      -5.4     11.403     12.598
REMARK  Name = min_compound94.pdb
REMARK  4 active torsions:
REMARK  status: ('A' for Active; 'I' for Inactive)
REMARK    1  A    between atoms: _2  and  _10
REMARK    2  A    between atoms: _2  and  _11
REMARK    3  A    between atoms: _7  and  _13
REMARK    4  A    between atoms: _9  and  _12
REMARK                            x       y       z     vdW  Elec       q    Type
REMARK                         _______ _______ _______ _____ _____    ______ ____
ROOT
ATOM      1  N   UNL     1     -15.686   1.615  -3.578  0.00  0.00    -0.286 NA
ATOM      2  C   UNL     1     -14.302   1.286  -3.932  0.00  0.00    +0.056 C 
ATOM      3  C   UNL     1     -13.461   2.538  -3.644  0.00  0.00    +0.036 C 
ATOM      4  C   UNL     1     -13.818   0.148  -3.023  0.00  0.00    +0.036 C 
ATOM      5  C   UNL     1     -14.200   0.947  -5.425  0.00  0.00    +0.034 C 
ATOM      6  C   UNL     1     -15.088  -0.237  -5.783  0.00  0.00    +0.002 C 
ATOM      7  C   UNL     1     -16.484  -0.148  -5.146  0.00  0.00    +0.064 C 
ATOM      8  C   UNL     1     -17.467  -0.117  -6.323  0.00  0.00    +0.123 C 
ATOM      9  C   UNL     1     -16.740  -0.893  -7.414  0.00  0.00    +0.032 C 
ATOM     10  C   UNL     1     -15.309  -0.385  -7.294  0.00  0.00    +0.007 C 
ATOM     11  C   UNL     1     -16.663   0.988  -4.148  0.00  0.00    +0.017 C 
ATOM     12  C   UNL     1     -18.069   1.279  -3.714  0.00  0.00    +0.060 C 
ENDROOT
BRANCH   8  13
ATOM     13  O   UNL     1     -17.697   1.215  -6.767  0.00  0.00    -0.391 OA
ATOM     14  H   UNL     1     -17.639   1.802  -5.993  0.00  0.00    +0.210 HD
ENDBRANCH   8  13
TORSDOF 1
ENDMDL
MODEL 7
REMARK VINA RESULT:      -5.4      2.354      4.455
REMARK  Name = min_compound94.pdb
REMARK  4 active torsions:
REMARK  status: ('A' for Active; 'I' for Inactive)
REMARK    1  A    between atoms: _2  and  _10
REMARK    2  A    between atoms: _2  and  _11
REMARK    3  A    between atoms: _7  and  _13
REMARK    4  A    between atoms: _9  and  _12
REMARK                            x       y       z     vdW  Elec       q    Type
REMARK                         _______ _______ _______ _____ _____    ______ ____
ROOT
ATOM      1  N   UNL     1     -12.138   1.128 -18.396  0.00  0.00    -0.286 NA
ATOM      2  C   UNL     1     -11.373   1.033 -17.148  0.00  0.00    +0.056 C 
ATOM      3  C   UNL     1     -11.226  -0.462 -16.831  0.00  0.00    +0.036 C 
ATOM      4  C   UNL     1      -9.978   1.628 -17.379  0.00  0.00    +0.036 C 
ATOM      5  C   UNL     1     -12.135   1.714 -16.004  0.00  0.00    +0.034 C 
ATOM      6  C   UNL     1     -12.387   3.185 -16.308  0.00  0.00    +0.002 C 
ATOM      7  C   UNL     1     -12.868   3.420 -17.750  0.00  0.00    +0.064 C 
ATOM      8  C   UNL     1     -14.253   4.065 -17.617  0.00  0.00    +0.123 C 
ATOM      9  C   UNL     1     -14.173   4.806 -16.287  0.00  0.00    +0.032 C 
ATOM     10  C   UNL     1     -13.443   3.815 -15.391  0.00  0.00    +0.007 C 
ATOM     11  C   UNL     1     -12.831   2.191 -18.647  0.00  0.00    +0.017 C 
ATOM     12  C   UNL     1     -13.539   2.306 -19.964  0.00  0.00    +0.060 C 
ENDROOT
BRANCH   8  13
ATOM     13  O   UNL     1     -15.276   3.079 -17.546  0.00  0.00    -0.391 OA
ATOM     14  H   UNL     1     -15.398   2.711 -18.438  0.00  0.00    +0.210 HD
ENDBRANCH   8  13
TORSDOF 1
ENDMDL
MODEL 8
REMARK VINA RESULT:      -5.3      1.687      3.383
REMARK  Name = min_compound94.pdb
REMARK  4 active torsions:
REMARK  status: ('A' for Active; 'I' for Inactive)
REMARK    1  A    between atoms: _2  and  _10
REMARK    2  A    between atoms: _2  and  _11
REMARK    3  A    between atoms: _7  and  _13
REMARK    4  A    between atoms: _9  and  _12
REMARK                            x       y       z     vdW  Elec       q    Type
REMARK                         _______ _______ _______ _____ _____    ______ ____
ROOT
ATOM      1  N   UNL     1     -13.302   1.779 -18.415  0.00  0.00    -0.286 NA
ATOM      2  C   UNL     1     -13.755   3.130 -18.761  0.00  0.00    +0.056 C 
ATOM      3  C   UNL     1     -14.055   3.125 -20.268  0.00  0.00    +0.036 C 
ATOM      4  C   UNL     1     -15.055   3.423 -18.001  0.00  0.00    +0.036 C 
ATOM      5  C   UNL     1     -12.647   4.152 -18.475  0.00  0.00    +0.034 C 
ATOM      6  C   UNL     1     -12.248   4.136 -17.006  0.00  0.00    +0.002 C 
ATOM      7  C   UNL     1     -12.092   2.711 -16.448  0.00  0.00    +0.064 C 
ATOM      8  C   UNL     1     -10.631   2.612 -15.990  0.00  0.00    +0.123 C 
ATOM      9  C   UNL     1     -10.277   4.047 -15.618  0.00  0.00    +0.032 C 
ATOM     10  C   UNL     1     -10.920   4.855 -16.737  0.00  0.00    +0.007 C 
ATOM     11  C   UNL     1     -12.531   1.601 -17.392  0.00  0.00    +0.017 C 
ATOM     12  C   UNL     1     -12.145   0.204 -17.004  0.00  0.00    +0.060 C 
ENDROOT
BRANCH   8  13
ATOM     13  O   UNL     1      -9.787   2.179 -17.051  0.00  0.00    -0.391 OA
ATOM     14  H   UNL     1      -9.781   1.206 -17.049  0.00  0.00    +0.210 HD
ENDBRANCH   8  13
TORSDOF 1
ENDMDL
MODEL 9
REMARK VINA RESULT:      -5.1     11.318     12.403
REMARK  Name = min_compound94.pdb
REMARK  4 active torsions:
REMARK  status: ('A' for Active; 'I' for Inactive)
REMARK    1  A    between atoms: _2  and  _10
REMARK    2  A    between atoms: _2  and  _11
REMARK    3  A    between atoms: _7  and  _13
REMARK    4  A    between atoms: _9  and  _12
REMARK                            x       y       z     vdW  Elec       q    Type
REMARK                         _______ _______ _______ _____ _____    ______ ____
ROOT
ATOM      1  N   UNL     1     -17.247  -0.868  -5.956  0.00  0.00    -0.286 NA
ATOM      2  C   UNL     1     -16.621  -0.078  -7.021  0.00  0.00    +0.056 C 
ATOM      3  C   UNL     1     -16.712  -0.915  -8.305  0.00  0.00    +0.036 C 
ATOM      4  C   UNL     1     -17.426   1.213  -7.216  0.00  0.00    +0.036 C 
ATOM      5  C   UNL     1     -15.143   0.178  -6.695  0.00  0.00    +0.034 C 
ATOM      6  C   UNL     1     -14.992   0.931  -5.379  0.00  0.00    +0.002 C 
ATOM      7  C   UNL     1     -15.902   0.378  -4.270  0.00  0.00    +0.064 C 
ATOM      8  C   UNL     1     -14.952  -0.085  -3.158  0.00  0.00    +0.123 C 
ATOM      9  C   UNL     1     -13.746   0.832  -3.316  0.00  0.00    +0.032 C 
ATOM     10  C   UNL     1     -13.561   0.891  -4.827  0.00  0.00    +0.007 C 
ATOM     11  C   UNL     1     -16.899  -0.679  -4.725  0.00  0.00    +0.017 C 
ATOM     12  C   UNL     1     -17.609  -1.435  -3.641  0.00  0.00    +0.060 C 
ENDROOT
BRANCH   8  13
ATOM     13  O   UNL     1     -14.547  -1.435  -3.356  0.00  0.00    -0.391 OA
ATOM     14  H   UNL     1     -14.949  -1.974  -2.653  0.00  0.00    +0.210 HD
ENDBRANCH   8  13
TORSDOF 1
ENDMDL
