MODEL 1
REMARK VINA RESULT:      -6.3      0.000      0.000
REMARK  Name = min_compound915.pdb
REMARK  4 active torsions:
REMARK  status: ('A' for Active; 'I' for Inactive)
REMARK    1  A    between atoms: _4  and  _6
REMARK    2  A    between atoms: _7  and  _18
REMARK    3  A    between atoms: _10  and  _11
REMARK    4  A    between atoms: _18  and  _19
REMARK                            x       y       z     vdW  Elec       q    Type
REMARK                         _______ _______ _______ _____ _____    ______ ____
ROOT
ATOM      1  C   UNL     1     -14.382   3.011 -17.810  0.00  0.00    +0.222 C 
ATOM      2  N   UNL     1     -13.331   2.160 -18.135  0.00  0.00    -0.227 N 
ATOM      3  N   UNL     1     -13.332   1.885 -19.472  0.00  0.00    -0.269 N 
ATOM      4  H   UNL     1     -12.816   1.194 -19.946  0.00  0.00    +0.170 HD
ATOM      5  C   UNL     1     -14.188   2.762 -19.991  0.00  0.00    +0.092 C 
ATOM      6  C   UNL     1     -14.858   3.506 -19.010  0.00  0.00    +0.001 C 
ENDROOT
BRANCH   2   7
ATOM      7  C   UNL     1     -12.233   1.682 -17.356  0.00  0.00    +0.052 A 
ATOM      8  C   UNL     1     -11.506   0.571 -17.818  0.00  0.00    +0.044 A 
ATOM      9  C   UNL     1     -10.415   0.098 -17.089  0.00  0.00    +0.043 A 
ATOM     10 CL   UNL     1      -9.540  -1.273 -17.652  0.00  0.00    -0.083 Cl
ATOM     11  C   UNL     1     -10.027   0.727 -15.909  0.00  0.00    +0.020 A 
ATOM     12  C   UNL     1     -10.724   1.848 -15.461  0.00  0.00    +0.003 A 
ATOM     13  C   UNL     1     -11.818   2.332 -16.186  0.00  0.00    +0.025 A 
ENDBRANCH   2   7
BRANCH   1  17
ATOM     14  C   UNL     1     -15.888   2.907 -14.530  0.00  0.00    +0.019 A 
ATOM     15  C   UNL     1     -15.363   4.213 -14.549  0.00  0.00    +0.019 A 
ATOM     16  C   UNL     1     -14.746   4.383 -15.769  0.00  0.00    +0.088 A 
ATOM     17  N   UNL     1     -14.890   3.233 -16.527  0.00  0.00    -0.330 N 
ATOM     18  C   UNL     1     -15.570   2.325 -15.737  0.00  0.00    +0.088 A 
ENDBRANCH   1  17
BRANCH   6  19
ATOM     19  C   UNL     1     -15.909   4.435 -19.253  0.00  0.00    +0.114 C 
BRANCH  19  20
ATOM     20  N   UNL     1     -16.990   5.377 -19.489  0.00  0.00    -0.326 NA
ATOM     21  H   UNL     1     -17.406   5.648 -18.597  0.00  0.00    +0.119 HD
ATOM     22  H   UNL     1     -16.623   6.205 -19.958  0.00  0.00    +0.119 HD
ENDBRANCH  19  20
ENDBRANCH   6  19
TORSDOF 4
ENDMDL
MODEL 2
REMARK VINA RESULT:      -6.2      2.355      2.951
REMARK  Name = min_compound915.pdb
REMARK  4 active torsions:
REMARK  status: ('A' for Active; 'I' for Inactive)
REMARK    1  A    between atoms: _4  and  _6
REMARK    2  A    between atoms: _7  and  _18
REMARK    3  A    between atoms: _10  and  _11
REMARK    4  A    between atoms: _18  and  _19
REMARK                            x       y       z     vdW  Elec       q    Type
REMARK                         _______ _______ _______ _____ _____    ______ ____
ROOT
ATOM      1  C   UNL     1     -13.117   3.847 -19.466  0.00  0.00    +0.222 C 
ATOM      2  N   UNL     1     -12.907   2.596 -18.895  0.00  0.00    -0.227 N 
ATOM      3  N   UNL     1     -13.475   1.618 -19.660  0.00  0.00    -0.269 N 
ATOM      4  H   UNL     1     -13.625   0.675 -19.419  0.00  0.00    +0.170 HD
ATOM      5  C   UNL     1     -13.780   2.226 -20.803  0.00  0.00    +0.092 C 
ATOM      6  C   UNL     1     -13.562   3.610 -20.753  0.00  0.00    +0.001 C 
ENDROOT
BRANCH   2   7
ATOM      7  C   UNL     1     -12.108   2.192 -17.781  0.00  0.00    +0.052 A 
ATOM      8  C   UNL     1     -11.385   0.990 -17.865  0.00  0.00    +0.044 A 
ATOM      9  C   UNL     1     -10.580   0.585 -16.801  0.00  0.00    +0.043 A 
ATOM     10 CL   UNL     1      -9.710  -0.898 -16.903  0.00  0.00    -0.083 Cl
ATOM     11  C   UNL     1     -10.471   1.369 -15.656  0.00  0.00    +0.020 A 
ATOM     12  C   UNL     1     -11.161   2.578 -15.579  0.00  0.00    +0.003 A 
ATOM     13  C   UNL     1     -11.969   2.996 -16.642  0.00  0.00    +0.025 A 
ENDBRANCH   2   7
BRANCH   1  17
ATOM     14  C   UNL     1     -12.157   7.063 -18.136  0.00  0.00    +0.019 A 
ATOM     15  C   UNL     1     -13.440   6.908 -17.578  0.00  0.00    +0.019 A 
ATOM     16  C   UNL     1     -13.929   5.698 -18.019  0.00  0.00    +0.088 A 
ATOM     17  N   UNL     1     -12.982   5.076 -18.817  0.00  0.00    -0.330 N 
ATOM     18  C   UNL     1     -11.910   5.945 -18.901  0.00  0.00    +0.088 A 
ENDBRANCH   1  17
BRANCH   6  19
ATOM     19  C   UNL     1     -13.902   4.537 -21.779  0.00  0.00    +0.114 C 
BRANCH  19  20
ATOM     20  N   UNL     1     -14.243   5.495 -22.817  0.00  0.00    -0.326 NA
ATOM     21  H   UNL     1     -15.039   6.055 -22.515  0.00  0.00    +0.119 HD
ATOM     22  H   UNL     1     -13.444   6.104 -22.992  0.00  0.00    +0.119 HD
ENDBRANCH  19  20
ENDBRANCH   6  19
TORSDOF 4
ENDMDL
MODEL 3
REMARK VINA RESULT:      -6.2      1.163      1.540
REMARK  Name = min_compound915.pdb
REMARK  4 active torsions:
REMARK  status: ('A' for Active; 'I' for Inactive)
REMARK    1  A    between atoms: _4  and  _6
REMARK    2  A    between atoms: _7  and  _18
REMARK    3  A    between atoms: _10  and  _11
REMARK    4  A    between atoms: _18  and  _19
REMARK                            x       y       z     vdW  Elec       q    Type
REMARK                         _______ _______ _______ _____ _____    ______ ____
ROOT
ATOM      1  C   UNL     1     -15.156   3.350 -16.968  0.00  0.00    +0.222 C 
ATOM      2  N   UNL     1     -13.997   2.765 -17.467  0.00  0.00    -0.227 N 
ATOM      3  N   UNL     1     -14.043   2.697 -18.830  0.00  0.00    -0.269 N 
ATOM      4  H   UNL     1     -13.447   2.191 -19.429  0.00  0.00    +0.170 HD
ATOM      5  C   UNL     1     -15.073   3.469 -19.167  0.00  0.00    +0.092 C 
ATOM      6  C   UNL     1     -15.793   3.923 -18.053  0.00  0.00    +0.001 C 
ENDROOT
BRANCH   2   7
ATOM      7  C   UNL     1     -12.780   2.386 -16.820  0.00  0.00    +0.052 A 
ATOM      8  C   UNL     1     -12.363   1.046 -16.892  0.00  0.00    +0.044 A 
ATOM      9  C   UNL     1     -11.168   0.655 -16.289  0.00  0.00    +0.043 A 
ATOM     10 CL   UNL     1     -10.671  -0.992 -16.366  0.00  0.00    -0.083 Cl
ATOM     11  C   UNL     1     -10.372   1.584 -15.626  0.00  0.00    +0.020 A 
ATOM     12  C   UNL     1     -10.764   2.921 -15.577  0.00  0.00    +0.003 A 
ATOM     13  C   UNL     1     -11.960   3.325 -16.182  0.00  0.00    +0.025 A 
ENDBRANCH   2   7
BRANCH   1  17
ATOM     14  C   UNL     1     -15.962   3.777 -13.474  0.00  0.00    +0.019 A 
ATOM     15  C   UNL     1     -16.704   2.623 -13.788  0.00  0.00    +0.019 A 
ATOM     16  C   UNL     1     -16.483   2.349 -15.120  0.00  0.00    +0.088 A 
ATOM     17  N   UNL     1     -15.604   3.281 -15.646  0.00  0.00    -0.330 N 
ATOM     18  C   UNL     1     -15.317   4.169 -14.627  0.00  0.00    +0.088 A 
ENDBRANCH   1  17
BRANCH   6  19
ATOM     19  C   UNL     1     -17.005   4.668 -18.101  0.00  0.00    +0.114 C 
BRANCH  19  20
ATOM     20  N   UNL     1     -18.244   5.427 -18.135  0.00  0.00    -0.326 NA
ATOM     21  H   UNL     1     -18.070   6.345 -18.545  0.00  0.00    +0.119 HD
ATOM     22  H   UNL     1     -18.932   4.928 -18.699  0.00  0.00    +0.119 HD
ENDBRANCH  19  20
ENDBRANCH   6  19
TORSDOF 4
ENDMDL
MODEL 4
REMARK VINA RESULT:      -6.2      2.588      5.076
REMARK  Name = min_compound915.pdb
REMARK  4 active torsions:
REMARK  status: ('A' for Active; 'I' for Inactive)
REMARK    1  A    between atoms: _4  and  _6
REMARK    2  A    between atoms: _7  and  _18
REMARK    3  A    between atoms: _10  and  _11
REMARK    4  A    between atoms: _18  and  _19
REMARK                            x       y       z     vdW  Elec       q    Type
REMARK                         _______ _______ _______ _____ _____    ______ ____
ROOT
ATOM      1  C   UNL     1     -14.117   2.854 -17.371  0.00  0.00    +0.222 C 
ATOM      2  N   UNL     1     -15.157   3.506 -16.717  0.00  0.00    -0.227 N 
ATOM      3  N   UNL     1     -15.933   4.187 -17.610  0.00  0.00    -0.269 N 
ATOM      4  H   UNL     1     -16.626   4.859 -17.416  0.00  0.00    +0.170 HD
ATOM      5  C   UNL     1     -15.543   3.737 -18.800  0.00  0.00    +0.092 C 
ATOM      6  C   UNL     1     -14.430   2.889 -18.716  0.00  0.00    +0.001 C 
ENDROOT
BRANCH   2   7
ATOM      7  C   UNL     1     -15.595   3.451 -15.357  0.00  0.00    +0.052 A 
ATOM      8  C   UNL     1     -14.973   4.281 -14.410  0.00  0.00    +0.044 A 
ATOM      9  C   UNL     1     -15.396   4.264 -13.082  0.00  0.00    +0.043 A 
ATOM     10 CL   UNL     1     -14.618   5.271 -11.923  0.00  0.00    -0.083 Cl
ATOM     11  C   UNL     1     -16.445   3.439 -12.684  0.00  0.00    +0.020 A 
ATOM     12  C   UNL     1     -17.087   2.635 -13.624  0.00  0.00    +0.003 A 
ATOM     13  C   UNL     1     -16.672   2.648 -14.960  0.00  0.00    +0.025 A 
ENDBRANCH   2   7
BRANCH   1  17
ATOM     14  C   UNL     1     -11.351   0.939 -16.059  0.00  0.00    +0.019 A 
ATOM     15  C   UNL     1     -10.960   2.249 -15.725  0.00  0.00    +0.019 A 
ATOM     16  C   UNL     1     -11.946   3.094 -16.183  0.00  0.00    +0.088 A 
ATOM     17  N   UNL     1     -12.958   2.354 -16.771  0.00  0.00    -0.330 N 
ATOM     18  C   UNL     1     -12.561   1.031 -16.712  0.00  0.00    +0.088 A 
ENDBRANCH   1  17
BRANCH   6  19
ATOM     19  C   UNL     1     -13.720   2.347 -19.826  0.00  0.00    +0.114 C 
BRANCH  19  20
ATOM     20  N   UNL     1     -13.008   1.797 -20.967  0.00  0.00    -0.326 NA
ATOM     21  H   UNL     1     -13.561   1.939 -21.813  0.00  0.00    +0.119 HD
ATOM     22  H   UNL     1     -12.109   2.268 -21.065  0.00  0.00    +0.119 HD
ENDBRANCH  19  20
ENDBRANCH   6  19
TORSDOF 4
ENDMDL
MODEL 5
REMARK VINA RESULT:      -6.1      9.132     11.495
REMARK  Name = min_compound915.pdb
REMARK  4 active torsions:
REMARK  status: ('A' for Active; 'I' for Inactive)
REMARK    1  A    between atoms: _4  and  _6
REMARK    2  A    between atoms: _7  and  _18
REMARK    3  A    between atoms: _10  and  _11
REMARK    4  A    between atoms: _18  and  _19
REMARK                            x       y       z     vdW  Elec       q    Type
REMARK                         _______ _______ _______ _____ _____    ______ ____
ROOT
ATOM      1  C   UNL     1     -17.396   0.913  -6.989  0.00  0.00    +0.222 C 
ATOM      2  N   UNL     1     -17.871   1.811  -7.941  0.00  0.00    -0.227 N 
ATOM      3  N   UNL     1     -19.064   1.385  -8.448  0.00  0.00    -0.269 N 
ATOM      4  H   UNL     1     -19.539   1.727  -9.240  0.00  0.00    +0.170 HD
ATOM      5  C   UNL     1     -19.442   0.403  -7.633  0.00  0.00    +0.092 C 
ATOM      6  C   UNL     1     -18.455   0.077  -6.691  0.00  0.00    +0.001 C 
ENDROOT
BRANCH   2   7
ATOM      7  C   UNL     1     -17.403   3.103  -8.331  0.00  0.00    +0.052 A 
ATOM      8  C   UNL     1     -16.559   3.209  -9.450  0.00  0.00    +0.044 A 
ATOM      9  C   UNL     1     -16.106   4.461  -9.866  0.00  0.00    +0.043 A 
ATOM     10 CL   UNL     1     -15.059   4.582 -11.227  0.00  0.00    -0.083 Cl
ATOM     11  C   UNL     1     -16.494   5.614  -9.191  0.00  0.00    +0.020 A 
ATOM     12  C   UNL     1     -17.355   5.520  -8.099  0.00  0.00    +0.003 A 
ATOM     13  C   UNL     1     -17.818   4.269  -7.675  0.00  0.00    +0.025 A 
ENDBRANCH   2   7
BRANCH   1  17
ATOM     14  C   UNL     1     -14.226   1.187  -5.283  0.00  0.00    +0.019 A 
ATOM     15  C   UNL     1     -13.938   0.193  -6.237  0.00  0.00    +0.019 A 
ATOM     16  C   UNL     1     -15.089  -0.012  -6.966  0.00  0.00    +0.088 A 
ATOM     17  N   UNL     1     -16.084   0.840  -6.516  0.00  0.00    -0.330 N 
ATOM     18  C   UNL     1     -15.543   1.550  -5.461  0.00  0.00    +0.088 A 
ENDBRANCH   1  17
BRANCH   6  19
ATOM     19  C   UNL     1     -18.524  -1.002  -5.765  0.00  0.00    +0.114 C 
BRANCH  19  20
ATOM     20  N   UNL     1     -18.584  -2.096  -4.810  0.00  0.00    -0.326 NA
ATOM     21  H   UNL     1     -18.622  -1.719  -3.863  0.00  0.00    +0.119 HD
ATOM     22  H   UNL     1     -19.417  -2.656  -4.987  0.00  0.00    +0.119 HD
ENDBRANCH  19  20
ENDBRANCH   6  19
TORSDOF 4
ENDMDL
MODEL 6
REMARK VINA RESULT:      -6.1      2.401      3.777
REMARK  Name = min_compound915.pdb
REMARK  4 active torsions:
REMARK  status: ('A' for Active; 'I' for Inactive)
REMARK    1  A    between atoms: _4  and  _6
REMARK    2  A    between atoms: _7  and  _18
REMARK    3  A    between atoms: _10  and  _11
REMARK    4  A    between atoms: _18  and  _19
REMARK                            x       y       z     vdW  Elec       q    Type
REMARK                         _______ _______ _______ _____ _____    ______ ____
ROOT
ATOM      1  C   UNL     1     -14.068   5.122 -16.938  0.00  0.00    +0.222 C 
ATOM      2  N   UNL     1     -13.621   4.201 -15.995  0.00  0.00    -0.227 N 
ATOM      3  N   UNL     1     -14.516   4.093 -14.970  0.00  0.00    -0.269 N 
ATOM      4  H   UNL     1     -14.384   3.651 -14.100  0.00  0.00    +0.170 HD
ATOM      5  C   UNL     1     -15.604   4.718 -15.410  0.00  0.00    +0.092 C 
ATOM      6  C   UNL     1     -15.396   5.361 -16.638  0.00  0.00    +0.001 C 
ENDROOT
BRANCH   2   7
ATOM      7  C   UNL     1     -12.512   3.300 -16.013  0.00  0.00    +0.052 A 
ATOM      8  C   UNL     1     -12.750   1.937 -16.262  0.00  0.00    +0.044 A 
ATOM      9  C   UNL     1     -11.683   1.040 -16.307  0.00  0.00    +0.043 A 
ATOM     10 CL   UNL     1     -11.983  -0.630 -16.596  0.00  0.00    -0.083 Cl
ATOM     11  C   UNL     1     -10.377   1.484 -16.122  0.00  0.00    +0.020 A 
ATOM     12  C   UNL     1     -10.131   2.839 -15.904  0.00  0.00    +0.003 A 
ATOM     13  C   UNL     1     -11.194   3.748 -15.860  0.00  0.00    +0.025 A 
ENDBRANCH   2   7
BRANCH   1  17
ATOM     14  C   UNL     1     -11.899   7.164 -18.978  0.00  0.00    +0.019 A 
ATOM     15  C   UNL     1     -12.195   6.110 -19.863  0.00  0.00    +0.019 A 
ATOM     16  C   UNL     1     -13.028   5.241 -19.192  0.00  0.00    +0.088 A 
ATOM     17  N   UNL     1     -13.286   5.730 -17.923  0.00  0.00    -0.330 N 
ATOM     18  C   UNL     1     -12.560   6.900 -17.798  0.00  0.00    +0.088 A 
ENDBRANCH   1  17
BRANCH   6  19
ATOM     19  C   UNL     1     -16.336   6.202 -17.300  0.00  0.00    +0.114 C 
BRANCH  19  20
ATOM     20  N   UNL     1     -17.296   7.069 -17.962  0.00  0.00    -0.326 NA
ATOM     21  H   UNL     1     -16.964   7.289 -18.901  0.00  0.00    +0.119 HD
ATOM     22  H   UNL     1     -18.197   6.594 -18.022  0.00  0.00    +0.119 HD
ENDBRANCH  19  20
ENDBRANCH   6  19
TORSDOF 4
ENDMDL
MODEL 7
REMARK VINA RESULT:      -6.1      2.415      2.860
REMARK  Name = min_compound915.pdb
REMARK  4 active torsions:
REMARK  status: ('A' for Active; 'I' for Inactive)
REMARK    1  A    between atoms: _4  and  _6
REMARK    2  A    between atoms: _7  and  _18
REMARK    3  A    between atoms: _10  and  _11
REMARK    4  A    between atoms: _18  and  _19
REMARK                            x       y       z     vdW  Elec       q    Type
REMARK                         _______ _______ _______ _____ _____    ______ ____
ROOT
ATOM      1  C   UNL     1     -14.658   5.046 -16.102  0.00  0.00    +0.222 C 
ATOM      2  N   UNL     1     -13.434   4.734 -16.686  0.00  0.00    -0.227 N 
ATOM      3  N   UNL     1     -13.075   5.692 -17.589  0.00  0.00    -0.269 N 
ATOM      4  H   UNL     1     -12.355   5.649 -18.259  0.00  0.00    +0.170 HD
ATOM      5  C   UNL     1     -13.917   6.697 -17.361  0.00  0.00    +0.092 C 
ATOM      6  C   UNL     1     -14.913   6.364 -16.431  0.00  0.00    +0.001 C 
ENDROOT
BRANCH   2   7
ATOM      7  C   UNL     1     -12.487   3.705 -16.391  0.00  0.00    +0.052 A 
ATOM      8  C   UNL     1     -12.852   2.365 -16.604  0.00  0.00    +0.044 A 
ATOM      9  C   UNL     1     -11.939   1.344 -16.346  0.00  0.00    +0.043 A 
ATOM     10 CL   UNL     1     -12.398  -0.297 -16.592  0.00  0.00    -0.083 Cl
ATOM     11  C   UNL     1     -10.656   1.639 -15.891  0.00  0.00    +0.020 A 
ATOM     12  C   UNL     1     -10.277   2.967 -15.707  0.00  0.00    +0.003 A 
ATOM     13  C   UNL     1     -11.185   4.000 -15.965  0.00  0.00    +0.025 A 
ENDBRANCH   2   7
BRANCH   1  17
ATOM     14  C   UNL     1     -17.024   2.578 -14.942  0.00  0.00    +0.019 A 
ATOM     15  C   UNL     1     -16.403   2.951 -13.735  0.00  0.00    +0.019 A 
ATOM     16  C   UNL     1     -15.457   3.903 -14.045  0.00  0.00    +0.088 A 
ATOM     17  N   UNL     1     -15.483   4.160 -15.406  0.00  0.00    -0.330 N 
ATOM     18  C   UNL     1     -16.434   3.314 -15.946  0.00  0.00    +0.088 A 
ENDBRANCH   1  17
BRANCH   6  19
ATOM     19  C   UNL     1     -16.016   7.190 -16.073  0.00  0.00    +0.114 C 
BRANCH  19  20
ATOM     20  N   UNL     1     -17.151   8.021 -15.708  0.00  0.00    -0.326 NA
ATOM     21  H   UNL     1     -17.345   7.915 -14.712  0.00  0.00    +0.119 HD
ATOM     22  H   UNL     1     -16.936   8.997 -15.911  0.00  0.00    +0.119 HD
ENDBRANCH  19  20
ENDBRANCH   6  19
TORSDOF 4
ENDMDL
MODEL 8
REMARK VINA RESULT:      -6.1     12.309     14.380
REMARK  Name = min_compound915.pdb
REMARK  4 active torsions:
REMARK  status: ('A' for Active; 'I' for Inactive)
REMARK    1  A    between atoms: _4  and  _6
REMARK    2  A    between atoms: _7  and  _18
REMARK    3  A    between atoms: _10  and  _11
REMARK    4  A    between atoms: _18  and  _19
REMARK                            x       y       z     vdW  Elec       q    Type
REMARK                         _______ _______ _______ _____ _____    ______ ____
ROOT
ATOM      1  C   UNL     1     -16.145  -0.129  -4.692  0.00  0.00    +0.222 C 
ATOM      2  N   UNL     1     -16.709  -1.139  -3.920  0.00  0.00    -0.227 N 
ATOM      3  N   UNL     1     -17.851  -1.608  -4.503  0.00  0.00    -0.269 N 
ATOM      4  H   UNL     1     -18.534  -2.195  -4.105  0.00  0.00    +0.170 HD
ATOM      5  C   UNL     1     -17.833  -1.094  -5.730  0.00  0.00    +0.092 C 
ATOM      6  C   UNL     1     -16.785  -0.182  -5.917  0.00  0.00    +0.001 C 
ENDROOT
BRANCH   2   7
ATOM      7  C   UNL     1     -16.224  -1.819  -2.761  0.00  0.00    +0.052 A 
ATOM      8  C   UNL     1     -15.225  -2.796  -2.916  0.00  0.00    +0.044 A 
ATOM      9  C   UNL     1     -14.718  -3.459  -1.799  0.00  0.00    +0.043 A 
ATOM     10 CL   UNL     1     -13.507  -4.667  -1.998  0.00  0.00    -0.083 Cl
ATOM     11  C   UNL     1     -15.180  -3.151  -0.523  0.00  0.00    +0.020 A 
ATOM     12  C   UNL     1     -16.148  -2.161  -0.358  0.00  0.00    +0.003 A 
ATOM     13  C   UNL     1     -16.662  -1.488  -1.472  0.00  0.00    +0.025 A 
ENDBRANCH   2   7
BRANCH   1  17
ATOM     14  C   UNL     1     -14.212   2.715  -3.592  0.00  0.00    +0.019 A 
ATOM     15  C   UNL     1     -13.255   1.686  -3.514  0.00  0.00    +0.019 A 
ATOM     16  C   UNL     1     -13.878   0.524  -3.911  0.00  0.00    +0.088 A 
ATOM     17  N   UNL     1     -15.190   0.795  -4.262  0.00  0.00    -0.330 N 
ATOM     18  C   UNL     1     -15.386   2.143  -4.031  0.00  0.00    +0.088 A 
ENDBRANCH   1  17
BRANCH   6  19
ATOM     19  C   UNL     1     -16.578   0.610  -7.082  0.00  0.00    +0.114 C 
BRANCH  19  20
ATOM     20  N   UNL     1     -16.366   1.432  -8.262  0.00  0.00    -0.326 NA
ATOM     21  H   UNL     1     -16.251   0.830  -9.078  0.00  0.00    +0.119 HD
ATOM     22  H   UNL     1     -17.171   2.042  -8.400  0.00  0.00    +0.119 HD
ENDBRANCH  19  20
ENDBRANCH   6  19
TORSDOF 4
ENDMDL
MODEL 9
REMARK VINA RESULT:      -5.9      3.354      5.601
REMARK  Name = min_compound915.pdb
REMARK  4 active torsions:
REMARK  status: ('A' for Active; 'I' for Inactive)
REMARK    1  A    between atoms: _4  and  _6
REMARK    2  A    between atoms: _7  and  _18
REMARK    3  A    between atoms: _10  and  _11
REMARK    4  A    between atoms: _18  and  _19
REMARK                            x       y       z     vdW  Elec       q    Type
REMARK                         _______ _______ _______ _____ _____    ______ ____
ROOT
ATOM      1  C   UNL     1     -13.900   4.572 -16.388  0.00  0.00    +0.222 C 
ATOM      2  N   UNL     1     -14.818   5.033 -15.450  0.00  0.00    -0.227 N 
ATOM      3  N   UNL     1     -15.189   6.316 -15.731  0.00  0.00    -0.269 N 
ATOM      4  H   UNL     1     -15.687   6.939 -15.155  0.00  0.00    +0.170 HD
ATOM      5  C   UNL     1     -14.725   6.535 -16.959  0.00  0.00    +0.092 C 
ATOM      6  C   UNL     1     -13.932   5.479 -17.430  0.00  0.00    +0.001 C 
ENDROOT
BRANCH   2   7
ATOM      7  C   UNL     1     -15.501   4.357 -14.391  0.00  0.00    +0.052 A 
ATOM      8  C   UNL     1     -15.309   4.797 -13.071  0.00  0.00    +0.044 A 
ATOM      9  C   UNL     1     -15.981   4.170 -12.022  0.00  0.00    +0.043 A 
ATOM     10 CL   UNL     1     -15.728   4.702 -10.404  0.00  0.00    -0.083 Cl
ATOM     11  C   UNL     1     -16.857   3.117 -12.272  0.00  0.00    +0.020 A 
ATOM     12  C   UNL     1     -17.076   2.696 -13.582  0.00  0.00    +0.003 A 
ATOM     13  C   UNL     1     -16.409   3.320 -14.642  0.00  0.00    +0.025 A 
ENDBRANCH   2   7
BRANCH   1  17
ATOM     14  C   UNL     1     -12.230   1.371 -16.382  0.00  0.00    +0.019 A 
ATOM     15  C   UNL     1     -11.282   2.176 -15.722  0.00  0.00    +0.019 A 
ATOM     16  C   UNL     1     -11.805   3.449 -15.661  0.00  0.00    +0.088 A 
ATOM     17  N   UNL     1     -13.064   3.463 -16.239  0.00  0.00    -0.330 N 
ATOM     18  C   UNL     1     -13.296   2.182 -16.703  0.00  0.00    +0.088 A 
ENDBRANCH   1  17
BRANCH   6  19
ATOM     19  C   UNL     1     -13.209   5.474 -18.657  0.00  0.00    +0.114 C 
BRANCH  19  20
ATOM     20  N   UNL     1     -12.460   5.460 -19.903  0.00  0.00    -0.326 NA
ATOM     21  H   UNL     1     -11.480   5.253 -19.708  0.00  0.00    +0.119 HD
ATOM     22  H   UNL     1     -12.843   4.744 -20.520  0.00  0.00    +0.119 HD
ENDBRANCH  19  20
ENDBRANCH   6  19
TORSDOF 4
ENDMDL
