MODEL 1
REMARK VINA RESULT:      -7.0      0.000      0.000
REMARK  Name = min_compound923.pdb
REMARK  3 active torsions:
REMARK  status: ('A' for Active; 'I' for Inactive)
REMARK    1  A    between atoms: _5  and  _7
REMARK    2  A    between atoms: _6  and  _17
REMARK    3  A    between atoms: _9  and  _18
REMARK                            x       y       z     vdW  Elec       q    Type
REMARK                         _______ _______ _______ _____ _____    ______ ____
ROOT
ATOM      1  C   UNL     1     -12.253   2.265 -17.592  0.00  0.00    +0.250 C 
ATOM      2  N   UNL     1     -12.152   3.378 -16.780  0.00  0.00    -0.280 N 
ATOM      3  H   UNL     1     -11.715   3.180 -15.880  0.00  0.00    +0.155 HD
ATOM      4  O   UNL     1     -13.041   2.110 -18.518  0.00  0.00    -0.270 OA
ENDROOT
BRANCH   2   5
ATOM      5  C   UNL     1     -12.894   4.574 -16.884  0.00  0.00    +0.052 A 
ATOM      6  C   UNL     1     -12.274   5.595 -17.625  0.00  0.00    +0.026 A 
ATOM      7  C   UNL     1     -12.874   6.848 -17.768  0.00  0.00    +0.022 A 
ATOM      8  C   UNL     1     -14.115   7.085 -17.189  0.00  0.00    +0.042 A 
ATOM      9 CL   UNL     1     -14.856   8.628 -17.364  0.00  0.00    -0.083 Cl
ATOM     10  C   UNL     1     -14.773   6.073 -16.498  0.00  0.00    +0.041 A 
ATOM     11  C   UNL     1     -14.178   4.811 -16.359  0.00  0.00    +0.064 A 
ATOM     12 CL   UNL     1     -15.197   3.571 -15.712  0.00  0.00    -0.082 Cl
ENDBRANCH   2   5
BRANCH   1  17
ATOM     13  C   UNL     1      -9.084   0.241 -17.280  0.00  0.00    +0.001 A 
ATOM     14  C   UNL     1      -9.524  -0.916 -16.644  0.00  0.00    +0.002 A 
ATOM     15  C   UNL     1     -10.869  -1.057 -16.298  0.00  0.00    +0.023 A 
ATOM     16  C   UNL     1     -11.789  -0.027 -16.546  0.00  0.00    +0.037 A 
ATOM     17  C   UNL     1     -11.345   1.131 -17.224  0.00  0.00    +0.058 A 
ATOM     18  C   UNL     1      -9.993   1.257 -17.577  0.00  0.00    +0.015 A 
BRANCH  16  19
ATOM     19  N   UNL     1     -13.170  -0.285 -16.322  0.00  0.00    -0.357 N 
ATOM     20  H   UNL     1     -13.668  -0.187 -17.212  0.00  0.00    +0.142 HD
ATOM     21  H   UNL     1     -13.314  -1.238 -15.986  0.00  0.00    +0.142 HD
ENDBRANCH  16  19
ENDBRANCH   1  17
TORSDOF 3
ENDMDL
MODEL 2
REMARK VINA RESULT:      -6.8      2.164      2.698
REMARK  Name = min_compound923.pdb
REMARK  3 active torsions:
REMARK  status: ('A' for Active; 'I' for Inactive)
REMARK    1  A    between atoms: _5  and  _7
REMARK    2  A    between atoms: _6  and  _17
REMARK    3  A    between atoms: _9  and  _18
REMARK                            x       y       z     vdW  Elec       q    Type
REMARK                         _______ _______ _______ _____ _____    ______ ____
ROOT
ATOM      1  C   UNL     1     -11.883   2.885 -15.954  0.00  0.00    +0.250 C 
ATOM      2  N   UNL     1     -13.255   2.877 -15.797  0.00  0.00    -0.280 N 
ATOM      3  H   UNL     1     -13.706   2.079 -16.245  0.00  0.00    +0.155 HD
ATOM      4  O   UNL     1     -11.149   3.863 -15.875  0.00  0.00    -0.270 OA
ENDROOT
BRANCH   2   5
ATOM      5  C   UNL     1     -14.078   3.975 -15.465  0.00  0.00    +0.052 A 
ATOM      6  C   UNL     1     -14.541   3.990 -14.138  0.00  0.00    +0.026 A 
ATOM      7  C   UNL     1     -15.402   4.992 -13.686  0.00  0.00    +0.022 A 
ATOM      8  C   UNL     1     -15.791   6.007 -14.554  0.00  0.00    +0.042 A 
ATOM      9 CL   UNL     1     -16.852   7.242 -14.000  0.00  0.00    -0.083 Cl
ATOM     10  C   UNL     1     -15.301   6.043 -15.856  0.00  0.00    +0.041 A 
ATOM     11  C   UNL     1     -14.430   5.043 -16.311  0.00  0.00    +0.064 A 
ATOM     12 CL   UNL     1     -13.690   5.338 -17.847  0.00  0.00    -0.082 Cl
ENDBRANCH   2   5
BRANCH   1  17
ATOM     13  C   UNL     1      -9.759  -0.224 -15.709  0.00  0.00    +0.001 A 
ATOM     14  C   UNL     1     -10.043  -0.881 -16.902  0.00  0.00    +0.002 A 
ATOM     15  C   UNL     1     -10.942  -0.322 -17.813  0.00  0.00    +0.023 A 
ATOM     16  C   UNL     1     -11.601   0.883 -17.527  0.00  0.00    +0.037 A 
ATOM     17  C   UNL     1     -11.284   1.564 -16.331  0.00  0.00    +0.058 A 
ATOM     18  C   UNL     1     -10.370   0.998 -15.428  0.00  0.00    +0.015 A 
BRANCH  16  19
ATOM     19  N   UNL     1     -12.380   1.488 -18.553  0.00  0.00    -0.357 N 
ATOM     20  H   UNL     1     -13.277   0.997 -18.613  0.00  0.00    +0.142 HD
ATOM     21  H   UNL     1     -12.573   2.466 -18.336  0.00  0.00    +0.142 HD
ENDBRANCH  16  19
ENDBRANCH   1  17
TORSDOF 3
ENDMDL
MODEL 3
REMARK VINA RESULT:      -6.7      3.288      3.785
REMARK  Name = min_compound923.pdb
REMARK  3 active torsions:
REMARK  status: ('A' for Active; 'I' for Inactive)
REMARK    1  A    between atoms: _5  and  _7
REMARK    2  A    between atoms: _6  and  _17
REMARK    3  A    between atoms: _9  and  _18
REMARK                            x       y       z     vdW  Elec       q    Type
REMARK                         _______ _______ _______ _____ _____    ______ ____
ROOT
ATOM      1  C   UNL     1     -11.950   2.145 -18.074  0.00  0.00    +0.250 C 
ATOM      2  N   UNL     1     -12.757   1.568 -19.035  0.00  0.00    -0.280 N 
ATOM      3  H   UNL     1     -12.476   0.617 -19.277  0.00  0.00    +0.155 HD
ATOM      4  O   UNL     1     -11.802   3.346 -17.877  0.00  0.00    -0.270 OA
ENDROOT
BRANCH   2   5
ATOM      5  C   UNL     1     -13.607   2.236 -19.942  0.00  0.00    +0.052 A 
ATOM      6  C   UNL     1     -13.397   1.920 -21.296  0.00  0.00    +0.026 A 
ATOM      7  C   UNL     1     -14.135   2.542 -22.305  0.00  0.00    +0.022 A 
ATOM      8  C   UNL     1     -15.110   3.474 -21.967  0.00  0.00    +0.042 A 
ATOM      9 CL   UNL     1     -16.020   4.243 -23.208  0.00  0.00    -0.083 Cl
ATOM     10  C   UNL     1     -15.374   3.762 -20.632  0.00  0.00    +0.041 A 
ATOM     11  C   UNL     1     -14.641   3.133 -19.615  0.00  0.00    +0.064 A 
ATOM     12 CL   UNL     1     -15.232   3.375 -18.008  0.00  0.00    -0.082 Cl
ENDBRANCH   2   5
BRANCH   1  17
ATOM     13  C   UNL     1     -10.102  -1.019 -17.176  0.00  0.00    +0.001 A 
ATOM     14  C   UNL     1      -9.664  -0.758 -15.881  0.00  0.00    +0.002 A 
ATOM     15  C   UNL     1      -9.960   0.464 -15.274  0.00  0.00    +0.023 A 
ATOM     16  C   UNL     1     -10.665   1.461 -15.967  0.00  0.00    +0.037 A 
ATOM     17  C   UNL     1     -11.137   1.178 -17.268  0.00  0.00    +0.058 A 
ATOM     18  C   UNL     1     -10.844  -0.058 -17.864  0.00  0.00    +0.015 A 
BRANCH  16  19
ATOM     19  N   UNL     1     -11.078   2.619 -15.251  0.00  0.00    -0.357 N 
ATOM     20  H   UNL     1     -12.039   2.475 -14.926  0.00  0.00    +0.142 HD
ATOM     21  H   UNL     1     -10.490   2.771 -14.431  0.00  0.00    +0.142 HD
ENDBRANCH  16  19
ENDBRANCH   1  17
TORSDOF 3
ENDMDL
MODEL 4
REMARK VINA RESULT:      -6.6     14.589     16.569
REMARK  Name = min_compound923.pdb
REMARK  3 active torsions:
REMARK  status: ('A' for Active; 'I' for Inactive)
REMARK    1  A    between atoms: _5  and  _7
REMARK    2  A    between atoms: _6  and  _17
REMARK    3  A    between atoms: _9  and  _18
REMARK                            x       y       z     vdW  Elec       q    Type
REMARK                         _______ _______ _______ _____ _____    ______ ____
ROOT
ATOM      1  C   UNL     1     -14.587  -1.376  -3.559  0.00  0.00    +0.250 C 
ATOM      2  N   UNL     1     -14.448  -1.860  -2.272  0.00  0.00    -0.280 N 
ATOM      3  H   UNL     1     -14.145  -1.148  -1.607  0.00  0.00    +0.155 HD
ATOM      4  O   UNL     1     -14.555  -2.038  -4.590  0.00  0.00    -0.270 OA
ENDROOT
BRANCH   2   5
ATOM      5  C   UNL     1     -14.295  -3.208  -1.884  0.00  0.00    +0.052 A 
ATOM      6  C   UNL     1     -13.062  -3.517  -1.285  0.00  0.00    +0.026 A 
ATOM      7  C   UNL     1     -12.757  -4.823  -0.895  0.00  0.00    +0.022 A 
ATOM      8  C   UNL     1     -13.696  -5.832  -1.081  0.00  0.00    +0.042 A 
ATOM      9 CL   UNL     1     -13.322  -7.442  -0.602  0.00  0.00    -0.083 Cl
ATOM     10  C   UNL     1     -14.944  -5.540  -1.622  0.00  0.00    +0.041 A 
ATOM     11  C   UNL     1     -15.257  -4.228  -2.007  0.00  0.00    +0.064 A 
ATOM     12 CL   UNL     1     -16.913  -3.945  -2.417  0.00  0.00    -0.082 Cl
ENDBRANCH   2   5
BRANCH   1  17
ATOM     13  C   UNL     1     -13.578   2.259  -3.510  0.00  0.00    +0.001 A 
ATOM     14  C   UNL     1     -14.777   2.911  -3.781  0.00  0.00    +0.002 A 
ATOM     15  C   UNL     1     -15.943   2.173  -3.993  0.00  0.00    +0.023 A 
ATOM     16  C   UNL     1     -15.922   0.770  -3.974  0.00  0.00    +0.037 A 
ATOM     17  C   UNL     1     -14.710   0.113  -3.664  0.00  0.00    +0.058 A 
ATOM     18  C   UNL     1     -13.546   0.866  -3.442  0.00  0.00    +0.015 A 
BRANCH  16  19
ATOM     19  N   UNL     1     -17.161   0.073  -4.034  0.00  0.00    -0.357 N 
ATOM     20  H   UNL     1     -16.968  -0.919  -4.201  0.00  0.00    +0.142 HD
ATOM     21  H   UNL     1     -17.665   0.149  -3.150  0.00  0.00    +0.142 HD
ENDBRANCH  16  19
ENDBRANCH   1  17
TORSDOF 3
ENDMDL
MODEL 5
REMARK VINA RESULT:      -6.6     13.419     14.562
REMARK  Name = min_compound923.pdb
REMARK  3 active torsions:
REMARK  status: ('A' for Active; 'I' for Inactive)
REMARK    1  A    between atoms: _5  and  _7
REMARK    2  A    between atoms: _6  and  _17
REMARK    3  A    between atoms: _9  and  _18
REMARK                            x       y       z     vdW  Elec       q    Type
REMARK                         _______ _______ _______ _____ _____    ______ ____
ROOT
ATOM      1  C   UNL     1     -15.238  -2.430  -3.095  0.00  0.00    +0.250 C 
ATOM      2  N   UNL     1     -14.515  -2.176  -4.244  0.00  0.00    -0.280 N 
ATOM      3  H   UNL     1     -13.621  -2.667  -4.273  0.00  0.00    +0.155 HD
ATOM      4  O   UNL     1     -16.117  -1.721  -2.619  0.00  0.00    -0.270 OA
ENDROOT
BRANCH   2   5
ATOM      5  C   UNL     1     -14.675  -1.084  -5.124  0.00  0.00    +0.052 A 
ATOM      6  C   UNL     1     -15.406  -1.364  -6.291  0.00  0.00    +0.026 A 
ATOM      7  C   UNL     1     -15.600  -0.388  -7.272  0.00  0.00    +0.022 A 
ATOM      8  C   UNL     1     -15.083   0.888  -7.082  0.00  0.00    +0.042 A 
ATOM      9 CL   UNL     1     -15.320   2.091  -8.289  0.00  0.00    -0.083 Cl
ATOM     10  C   UNL     1     -14.403   1.204  -5.910  0.00  0.00    +0.041 A 
ATOM     11  C   UNL     1     -14.213   0.230  -4.920  0.00  0.00    +0.064 A 
ATOM     12 CL   UNL     1     -13.590   0.807  -3.413  0.00  0.00    -0.082 Cl
ENDBRANCH   2   5
BRANCH   1  17
ATOM     13  C   UNL     1     -13.037  -4.828  -1.188  0.00  0.00    +0.001 A 
ATOM     14  C   UNL     1     -13.882  -5.912  -0.973  0.00  0.00    +0.002 A 
ATOM     15  C   UNL     1     -15.196  -5.879  -1.444  0.00  0.00    +0.023 A 
ATOM     16  C   UNL     1     -15.698  -4.747  -2.103  0.00  0.00    +0.037 A 
ATOM     17  C   UNL     1     -14.826  -3.663  -2.350  0.00  0.00    +0.058 A 
ATOM     18  C   UNL     1     -13.503  -3.711  -1.882  0.00  0.00    +0.015 A 
BRANCH  16  19
ATOM     19  N   UNL     1     -16.986  -4.827  -2.702  0.00  0.00    -0.357 N 
ATOM     20  H   UNL     1     -17.660  -5.117  -1.986  0.00  0.00    +0.142 HD
ATOM     21  H   UNL     1     -17.280  -3.916  -3.057  0.00  0.00    +0.142 HD
ENDBRANCH  16  19
ENDBRANCH   1  17
TORSDOF 3
ENDMDL
MODEL 6
REMARK VINA RESULT:      -6.6      2.683      6.683
REMARK  Name = min_compound923.pdb
REMARK  3 active torsions:
REMARK  status: ('A' for Active; 'I' for Inactive)
REMARK    1  A    between atoms: _5  and  _7
REMARK    2  A    between atoms: _6  and  _17
REMARK    3  A    between atoms: _9  and  _18
REMARK                            x       y       z     vdW  Elec       q    Type
REMARK                         _______ _______ _______ _____ _____    ______ ____
ROOT
ATOM      1  C   UNL     1     -13.885   4.215 -16.442  0.00  0.00    +0.250 C 
ATOM      2  N   UNL     1     -12.544   4.015 -16.708  0.00  0.00    -0.280 N 
ATOM      3  H   UNL     1     -12.114   4.792 -17.210  0.00  0.00    +0.155 HD
ATOM      4  O   UNL     1     -14.719   3.346 -16.217  0.00  0.00    -0.270 OA
ENDROOT
BRANCH   2   5
ATOM      5  C   UNL     1     -11.858   2.782 -16.724  0.00  0.00    +0.052 A 
ATOM      6  C   UNL     1     -11.145   2.484 -15.549  0.00  0.00    +0.026 A 
ATOM      7  C   UNL     1     -10.381   1.319 -15.445  0.00  0.00    +0.022 A 
ATOM      8  C   UNL     1     -10.342   0.426 -16.511  0.00  0.00    +0.042 A 
ATOM      9 CL   UNL     1      -9.401  -1.009 -16.385  0.00  0.00    -0.083 Cl
ATOM     10  C   UNL     1     -11.083   0.673 -17.662  0.00  0.00    +0.041 A 
ATOM     11  C   UNL     1     -11.857   1.837 -17.767  0.00  0.00    +0.064 A 
ATOM     12 CL   UNL     1     -12.928   1.903 -19.125  0.00  0.00    -0.082 Cl
ENDBRANCH   2   5
BRANCH   1  17
ATOM     13  C   UNL     1     -14.120   7.780 -17.654  0.00  0.00    +0.001 A 
ATOM     14  C   UNL     1     -15.042   8.341 -16.774  0.00  0.00    +0.002 A 
ATOM     15  C   UNL     1     -15.612   7.560 -15.767  0.00  0.00    +0.023 A 
ATOM     16  C   UNL     1     -15.299   6.198 -15.646  0.00  0.00    +0.037 A 
ATOM     17  C   UNL     1     -14.337   5.642 -16.519  0.00  0.00    +0.058 A 
ATOM     18  C   UNL     1     -13.762   6.439 -17.522  0.00  0.00    +0.015 A 
BRANCH  16  19
ATOM     19  N   UNL     1     -15.780   5.490 -14.509  0.00  0.00    -0.357 N 
ATOM     20  H   UNL     1     -15.054   5.502 -13.787  0.00  0.00    +0.142 HD
ATOM     21  H   UNL     1     -16.611   5.941 -14.124  0.00  0.00    +0.142 HD
ENDBRANCH  16  19
ENDBRANCH   1  17
TORSDOF 3
ENDMDL
MODEL 7
REMARK VINA RESULT:      -6.5      2.710      6.969
REMARK  Name = min_compound923.pdb
REMARK  3 active torsions:
REMARK  status: ('A' for Active; 'I' for Inactive)
REMARK    1  A    between atoms: _5  and  _7
REMARK    2  A    between atoms: _6  and  _17
REMARK    3  A    between atoms: _9  and  _18
REMARK                            x       y       z     vdW  Elec       q    Type
REMARK                         _______ _______ _______ _____ _____    ______ ____
ROOT
ATOM      1  C   UNL     1     -13.531   4.768 -17.125  0.00  0.00    +0.250 C 
ATOM      2  N   UNL     1     -13.143   3.967 -16.069  0.00  0.00    -0.280 N 
ATOM      3  H   UNL     1     -13.230   4.427 -15.162  0.00  0.00    +0.155 HD
ATOM      4  O   UNL     1     -13.188   4.644 -18.295  0.00  0.00    -0.270 OA
ENDROOT
BRANCH   2   5
ATOM      5  C   UNL     1     -12.321   2.821 -16.130  0.00  0.00    +0.052 A 
ATOM      6  C   UNL     1     -12.974   1.643 -16.534  0.00  0.00    +0.026 A 
ATOM      7  C   UNL     1     -12.293   0.426 -16.592  0.00  0.00    +0.022 A 
ATOM      8  C   UNL     1     -10.941   0.378 -16.268  0.00  0.00    +0.042 A 
ATOM      9 CL   UNL     1     -10.100  -1.121 -16.339  0.00  0.00    -0.083 Cl
ATOM     10  C   UNL     1     -10.262   1.541 -15.919  0.00  0.00    +0.041 A 
ATOM     11  C   UNL     1     -10.940   2.767 -15.867  0.00  0.00    +0.064 A 
ATOM     12 CL   UNL     1      -9.941   4.166 -15.678  0.00  0.00    -0.082 Cl
ENDBRANCH   2   5
BRANCH   1  17
ATOM     13  C   UNL     1     -16.372   6.694 -15.558  0.00  0.00    +0.001 A 
ATOM     14  C   UNL     1     -16.132   7.995 -15.989  0.00  0.00    +0.002 A 
ATOM     15  C   UNL     1     -15.028   8.272 -16.798  0.00  0.00    +0.023 A 
ATOM     16  C   UNL     1     -14.126   7.259 -17.158  0.00  0.00    +0.037 A 
ATOM     17  C   UNL     1     -14.394   5.934 -16.748  0.00  0.00    +0.058 A 
ATOM     18  C   UNL     1     -15.512   5.665 -15.943  0.00  0.00    +0.015 A 
BRANCH  16  19
ATOM     19  N   UNL     1     -13.115   7.562 -18.113  0.00  0.00    -0.357 N 
ATOM     20  H   UNL     1     -12.220   7.651 -17.621  0.00  0.00    +0.142 HD
ATOM     21  H   UNL     1     -13.022   6.809 -18.796  0.00  0.00    +0.142 HD
ENDBRANCH  16  19
ENDBRANCH   1  17
TORSDOF 3
ENDMDL
MODEL 8
REMARK VINA RESULT:      -6.4      3.031      6.832
REMARK  Name = min_compound923.pdb
REMARK  3 active torsions:
REMARK  status: ('A' for Active; 'I' for Inactive)
REMARK    1  A    between atoms: _5  and  _7
REMARK    2  A    between atoms: _6  and  _17
REMARK    3  A    between atoms: _9  and  _18
REMARK                            x       y       z     vdW  Elec       q    Type
REMARK                         _______ _______ _______ _____ _____    ______ ____
ROOT
ATOM      1  C   UNL     1     -13.904   4.248 -16.092  0.00  0.00    +0.250 C 
ATOM      2  N   UNL     1     -13.213   3.239 -15.448  0.00  0.00    -0.280 N 
ATOM      3  H   UNL     1     -13.162   3.369 -14.438  0.00  0.00    +0.155 HD
ATOM      4  O   UNL     1     -13.800   4.560 -17.272  0.00  0.00    -0.270 OA
ENDROOT
BRANCH   2   5
ATOM      5  C   UNL     1     -12.295   2.337 -16.027  0.00  0.00    +0.052 A 
ATOM      6  C   UNL     1     -12.842   1.102 -16.416  0.00  0.00    +0.026 A 
ATOM      7  C   UNL     1     -12.038   0.096 -16.959  0.00  0.00    +0.022 A 
ATOM      8  C   UNL     1     -10.678   0.326 -17.138  0.00  0.00    +0.042 A 
ATOM      9 CL   UNL     1      -9.686  -0.911 -17.805  0.00  0.00    -0.083 Cl
ATOM     10  C   UNL     1     -10.125   1.560 -16.811  0.00  0.00    +0.041 A 
ATOM     11  C   UNL     1     -10.930   2.575 -16.274  0.00  0.00    +0.064 A 
ATOM     12 CL   UNL     1     -10.188   4.133 -16.154  0.00  0.00    -0.082 Cl
ENDBRANCH   2   5
BRANCH   1  17
ATOM     13  C   UNL     1     -15.867   5.264 -13.035  0.00  0.00    +0.001 A 
ATOM     14  C   UNL     1     -16.479   6.444 -13.445  0.00  0.00    +0.002 A 
ATOM     15  C   UNL     1     -16.257   6.938 -14.732  0.00  0.00    +0.023 A 
ATOM     16  C   UNL     1     -15.390   6.280 -15.616  0.00  0.00    +0.037 A 
ATOM     17  C   UNL     1     -14.798   5.063 -15.208  0.00  0.00    +0.058 A 
ATOM     18  C   UNL     1     -15.037   4.571 -13.915  0.00  0.00    +0.015 A 
BRANCH  16  19
ATOM     19  N   UNL     1     -15.325   6.732 -16.964  0.00  0.00    -0.357 N 
ATOM     20  H   UNL     1     -16.245   7.097 -17.229  0.00  0.00    +0.142 HD
ATOM     21  H   UNL     1     -14.648   7.490 -17.061  0.00  0.00    +0.142 HD
ENDBRANCH  16  19
ENDBRANCH   1  17
TORSDOF 3
ENDMDL
MODEL 9
REMARK VINA RESULT:      -6.3      2.931      4.042
REMARK  Name = min_compound923.pdb
REMARK  3 active torsions:
REMARK  status: ('A' for Active; 'I' for Inactive)
REMARK    1  A    between atoms: _5  and  _7
REMARK    2  A    between atoms: _6  and  _17
REMARK    3  A    between atoms: _9  and  _18
REMARK                            x       y       z     vdW  Elec       q    Type
REMARK                         _______ _______ _______ _____ _____    ______ ____
ROOT
ATOM      1  C   UNL     1     -13.447   2.652 -15.960  0.00  0.00    +0.250 C 
ATOM      2  N   UNL     1     -14.666   2.027 -15.783  0.00  0.00    -0.280 N 
ATOM      3  H   UNL     1     -14.674   1.062 -16.114  0.00  0.00    +0.155 HD
ATOM      4  O   UNL     1     -13.253   3.861 -16.022  0.00  0.00    -0.270 OA
ENDROOT
BRANCH   2   5
ATOM      5  C   UNL     1     -15.918   2.649 -15.587  0.00  0.00    +0.052 A 
ATOM      6  C   UNL     1     -16.437   2.541 -14.284  0.00  0.00    +0.026 A 
ATOM      7  C   UNL     1     -17.689   3.069 -13.961  0.00  0.00    +0.022 A 
ATOM      8  C   UNL     1     -18.427   3.731 -14.935  0.00  0.00    +0.042 A 
ATOM      9 CL   UNL     1     -19.970   4.381 -14.540  0.00  0.00    -0.083 Cl
ATOM     10  C   UNL     1     -17.911   3.897 -16.216  0.00  0.00    +0.041 A 
ATOM     11  C   UNL     1     -16.651   3.376 -16.543  0.00  0.00    +0.064 A 
ATOM     12 CL   UNL     1     -16.011   3.870 -18.073  0.00  0.00    -0.082 Cl
ENDBRANCH   2   5
BRANCH   1  17
ATOM     13  C   UNL     1     -11.560  -0.501 -16.812  0.00  0.00    +0.001 A 
ATOM     14  C   UNL     1     -10.239  -0.141 -16.566  0.00  0.00    +0.002 A 
ATOM     15  C   UNL     1      -9.936   1.147 -16.120  0.00  0.00    +0.023 A 
ATOM     16  C   UNL     1     -10.944   2.107 -15.950  0.00  0.00    +0.037 A 
ATOM     17  C   UNL     1     -12.287   1.726 -16.168  0.00  0.00    +0.058 A 
ATOM     18  C   UNL     1     -12.582   0.425 -16.606  0.00  0.00    +0.015 A 
BRANCH  16  19
ATOM     19  N   UNL     1     -10.603   3.347 -15.342  0.00  0.00    -0.357 N 
ATOM     20  H   UNL     1     -11.453   3.914 -15.261  0.00  0.00    +0.142 HD
ATOM     21  H   UNL     1     -10.233   3.203 -14.402  0.00  0.00    +0.142 HD
ENDBRANCH  16  19
ENDBRANCH   1  17
TORSDOF 3
ENDMDL
