MODEL 1
REMARK VINA RESULT:      -7.2      0.000      0.000
REMARK  Name = min_compound932.pdb
REMARK  7 active torsions:
REMARK  status: ('A' for Active; 'I' for Inactive)
REMARK    1  A    between atoms: _3  and  _5
REMARK    2  A    between atoms: _6  and  _11
REMARK    3  A    between atoms: _7  and  _15
REMARK    4  A    between atoms: _11  and  _12
REMARK    5  A    between atoms: _11  and  _13
REMARK    6  A    between atoms: _11  and  _14
REMARK    7  A    between atoms: _16  and  _17
REMARK                            x       y       z     vdW  Elec       q    Type
REMARK                         _______ _______ _______ _____ _____    ______ ____
ROOT
ATOM      1  C   UNL     1     -11.891   0.706 -16.836  0.00  0.00    +0.068 A 
ATOM      2  C   UNL     1     -11.388   1.717 -17.662  0.00  0.00    +0.068 A 
ATOM      3  C   UNL     1     -12.329   2.730 -17.637  0.00  0.00    +0.125 A 
ATOM      4  N   UNL     1     -13.308   2.288 -16.752  0.00  0.00    -0.245 N 
ATOM      5  N   UNL     1     -13.047   1.045 -16.276  0.00  0.00    -0.174 NA
ENDROOT
BRANCH   3   6
ATOM      6  N   UNL     1     -12.347   3.938 -18.330  0.00  0.00    -0.254 N 
ATOM      7  H   UNL     1     -12.587   3.943 -19.308  0.00  0.00    +0.158 HD
ATOM      8  C   UNL     1     -11.779   5.087 -17.837  0.00  0.00    +0.309 C 
ATOM      9  N   UNL     1     -11.826   6.204 -18.624  0.00  0.00    -0.269 N 
ATOM     10  H   UNL     1     -11.168   6.893 -18.282  0.00  0.00    +0.156 HD
ATOM     11  O   UNL     1     -11.155   5.189 -16.782  0.00  0.00    -0.252 OA
BRANCH   9  12
ATOM     12  C   UNL     1     -12.605   6.590 -19.724  0.00  0.00    +0.035 A 
ATOM     13  C   UNL     1     -11.918   6.897 -20.907  0.00  0.00    +0.023 A 
ATOM     14  C   UNL     1     -12.609   7.292 -22.053  0.00  0.00    +0.002 A 
ATOM     15  C   UNL     1     -13.996   7.403 -22.023  0.00  0.00    +0.000 A 
ATOM     16  C   UNL     1     -14.685   7.141 -20.840  0.00  0.00    +0.002 A 
ATOM     17  C   UNL     1     -13.989   6.752 -19.690  0.00  0.00    +0.023 A 
ENDBRANCH   9  12
ENDBRANCH   3   6
BRANCH   4  18
ATOM     18  C   UNL     1     -14.550   2.948 -16.299  0.00  0.00    +0.057 C 
ATOM     19  C   UNL     1     -15.351   3.450 -17.513  0.00  0.00    +0.036 C 
ATOM     20  C   UNL     1     -14.243   4.108 -15.334  0.00  0.00    +0.036 C 
ATOM     21  C   UNL     1     -15.469   1.968 -15.516  0.00  0.00    +0.036 C 
ENDBRANCH   4  18
BRANCH   1  24
ATOM     22  C   UNL     1      -9.944  -0.667 -15.771  0.00  0.00    +0.010 C 
ATOM     23  C   UNL     1      -9.827  -0.845 -17.245  0.00  0.00    +0.010 C 
ATOM     24  C   UNL     1     -11.193  -0.630 -16.628  0.00  0.00    +0.040 C 
ENDBRANCH   1  24
TORSDOF 4
ENDMDL
MODEL 2
REMARK VINA RESULT:      -6.6      1.872      2.223
REMARK  Name = min_compound932.pdb
REMARK  7 active torsions:
REMARK  status: ('A' for Active; 'I' for Inactive)
REMARK    1  A    between atoms: _3  and  _5
REMARK    2  A    between atoms: _6  and  _11
REMARK    3  A    between atoms: _7  and  _15
REMARK    4  A    between atoms: _11  and  _12
REMARK    5  A    between atoms: _11  and  _13
REMARK    6  A    between atoms: _11  and  _14
REMARK    7  A    between atoms: _16  and  _17
REMARK                            x       y       z     vdW  Elec       q    Type
REMARK                         _______ _______ _______ _____ _____    ______ ____
ROOT
ATOM      1  C   UNL     1     -12.018   0.824 -16.976  0.00  0.00    +0.068 A 
ATOM      2  C   UNL     1     -11.743   1.420 -18.212  0.00  0.00    +0.068 A 
ATOM      3  C   UNL     1     -12.524   2.558 -18.267  0.00  0.00    +0.125 A 
ATOM      4  N   UNL     1     -13.175   2.606 -17.038  0.00  0.00    -0.245 N 
ATOM      5  N   UNL     1     -12.877   1.538 -16.257  0.00  0.00    -0.174 NA
ENDROOT
BRANCH   3   6
ATOM      6  N   UNL     1     -12.673   3.481 -19.300  0.00  0.00    -0.254 N 
ATOM      7  H   UNL     1     -12.231   4.382 -19.225  0.00  0.00    +0.158 HD
ATOM      8  C   UNL     1     -13.620   3.348 -20.286  0.00  0.00    +0.309 C 
ATOM      9  N   UNL     1     -13.695   4.336 -21.228  0.00  0.00    -0.269 N 
ATOM     10  H   UNL     1     -14.572   4.265 -21.730  0.00  0.00    +0.156 HD
ATOM     11  O   UNL     1     -14.468   2.459 -20.358  0.00  0.00    -0.252 OA
BRANCH   9  12
ATOM     12  C   UNL     1     -12.822   5.346 -21.655  0.00  0.00    +0.035 A 
ATOM     13  C   UNL     1     -12.115   5.108 -22.841  0.00  0.00    +0.023 A 
ATOM     14  C   UNL     1     -11.222   6.056 -23.344  0.00  0.00    +0.002 A 
ATOM     15  C   UNL     1     -11.013   7.246 -22.653  0.00  0.00    +0.000 A 
ATOM     16  C   UNL     1     -11.679   7.474 -21.451  0.00  0.00    +0.002 A 
ATOM     17  C   UNL     1     -12.568   6.519 -20.945  0.00  0.00    +0.023 A 
ENDBRANCH   9  12
ENDBRANCH   3   6
BRANCH   4  18
ATOM     18  C   UNL     1     -14.123   3.605 -16.500  0.00  0.00    +0.057 C 
ATOM     19  C   UNL     1     -15.525   3.365 -17.084  0.00  0.00    +0.036 C 
ATOM     20  C   UNL     1     -13.648   5.039 -16.797  0.00  0.00    +0.036 C 
ATOM     21  C   UNL     1     -14.246   3.504 -14.953  0.00  0.00    +0.036 C 
ENDBRANCH   4  18
BRANCH   1  24
ATOM     22  C   UNL     1     -10.126  -0.470 -15.729  0.00  0.00    +0.010 C 
ATOM     23  C   UNL     1     -10.099  -0.943 -17.141  0.00  0.00    +0.010 C 
ATOM     24  C   UNL     1     -11.412  -0.498 -16.531  0.00  0.00    +0.040 C 
ENDBRANCH   1  24
TORSDOF 4
ENDMDL
MODEL 3
REMARK VINA RESULT:      -6.6      2.342      6.847
REMARK  Name = min_compound932.pdb
REMARK  7 active torsions:
REMARK  status: ('A' for Active; 'I' for Inactive)
REMARK    1  A    between atoms: _3  and  _5
REMARK    2  A    between atoms: _6  and  _11
REMARK    3  A    between atoms: _7  and  _15
REMARK    4  A    between atoms: _11  and  _12
REMARK    5  A    between atoms: _11  and  _13
REMARK    6  A    between atoms: _11  and  _14
REMARK    7  A    between atoms: _16  and  _17
REMARK                            x       y       z     vdW  Elec       q    Type
REMARK                         _______ _______ _______ _____ _____    ______ ____
ROOT
ATOM      1  C   UNL     1     -15.796   5.269 -15.622  0.00  0.00    +0.068 A 
ATOM      2  C   UNL     1     -15.238   3.986 -15.606  0.00  0.00    +0.068 A 
ATOM      3  C   UNL     1     -14.162   4.030 -16.472  0.00  0.00    +0.125 A 
ATOM      4  N   UNL     1     -14.106   5.349 -16.909  0.00  0.00    -0.245 N 
ATOM      5  N   UNL     1     -15.114   6.101 -16.402  0.00  0.00    -0.174 NA
ENDROOT
BRANCH   3   6
ATOM      6  N   UNL     1     -13.299   3.008 -16.863  0.00  0.00    -0.254 N 
ATOM      7  H   UNL     1     -12.426   2.885 -16.378  0.00  0.00    +0.158 HD
ATOM      8  C   UNL     1     -13.433   2.337 -18.055  0.00  0.00    +0.309 C 
ATOM      9  N   UNL     1     -12.504   1.378 -18.347  0.00  0.00    -0.269 N 
ATOM     10  H   UNL     1     -12.549   1.146 -19.332  0.00  0.00    +0.156 HD
ATOM     11  O   UNL     1     -14.266   2.575 -18.928  0.00  0.00    -0.252 OA
BRANCH   9  12
ATOM     12  C   UNL     1     -11.583   0.646 -17.584  0.00  0.00    +0.035 A 
ATOM     13  C   UNL     1     -10.225   0.888 -17.830  0.00  0.00    +0.023 A 
ATOM     14  C   UNL     1      -9.236   0.206 -17.120  0.00  0.00    +0.002 A 
ATOM     15  C   UNL     1      -9.596  -0.742 -16.167  0.00  0.00    +0.000 A 
ATOM     16  C   UNL     1     -10.943  -1.021 -15.945  0.00  0.00    +0.002 A 
ATOM     17  C   UNL     1     -11.932  -0.341 -16.663  0.00  0.00    +0.023 A 
ENDBRANCH   9  12
ENDBRANCH   3   6
BRANCH   4  18
ATOM     18  C   UNL     1     -13.155   6.009 -17.828  0.00  0.00    +0.057 C 
ATOM     19  C   UNL     1     -13.339   7.535 -17.768  0.00  0.00    +0.036 C 
ATOM     20  C   UNL     1     -13.331   5.498 -19.270  0.00  0.00    +0.036 C 
ATOM     21  C   UNL     1     -11.680   5.709 -17.442  0.00  0.00    +0.036 C 
ENDBRANCH   4  18
BRANCH   1  24
ATOM     22  C   UNL     1     -18.375   5.663 -15.584  0.00  0.00    +0.010 C 
ATOM     23  C   UNL     1     -17.747   6.951 -15.178  0.00  0.00    +0.010 C 
ATOM     24  C   UNL     1     -17.050   5.647 -14.849  0.00  0.00    +0.040 C 
ENDBRANCH   1  24
TORSDOF 4
ENDMDL
MODEL 4
REMARK VINA RESULT:      -6.6      9.274     13.082
REMARK  Name = min_compound932.pdb
REMARK  7 active torsions:
REMARK  status: ('A' for Active; 'I' for Inactive)
REMARK    1  A    between atoms: _3  and  _5
REMARK    2  A    between atoms: _6  and  _11
REMARK    3  A    between atoms: _7  and  _15
REMARK    4  A    between atoms: _11  and  _12
REMARK    5  A    between atoms: _11  and  _13
REMARK    6  A    between atoms: _11  and  _14
REMARK    7  A    between atoms: _16  and  _17
REMARK                            x       y       z     vdW  Elec       q    Type
REMARK                         _______ _______ _______ _____ _____    ______ ____
ROOT
ATOM      1  C   UNL     1     -17.855   2.978 -10.265  0.00  0.00    +0.068 A 
ATOM      2  C   UNL     1     -16.695   2.399  -9.737  0.00  0.00    +0.068 A 
ATOM      3  C   UNL     1     -17.083   1.768  -8.570  0.00  0.00    +0.125 A 
ATOM      4  N   UNL     1     -18.459   1.957  -8.500  0.00  0.00    -0.245 N 
ATOM      5  N   UNL     1     -18.927   2.710  -9.527  0.00  0.00    -0.174 NA
ENDROOT
BRANCH   3   6
ATOM      6  N   UNL     1     -16.308   1.089  -7.632  0.00  0.00    -0.254 N 
ATOM      7  H   UNL     1     -15.688   1.609  -7.034  0.00  0.00    +0.158 HD
ATOM      8  C   UNL     1     -16.122  -0.272  -7.666  0.00  0.00    +0.309 C 
ATOM      9  N   UNL     1     -15.310  -0.822  -6.714  0.00  0.00    -0.269 N 
ATOM     10  H   UNL     1     -15.046  -1.760  -6.990  0.00  0.00    +0.156 HD
ATOM     11  O   UNL     1     -16.552  -1.038  -8.526  0.00  0.00    -0.252 OA
BRANCH   9  12
ATOM     12  C   UNL     1     -14.837  -0.391  -5.467  0.00  0.00    +0.035 A 
ATOM     13  C   UNL     1     -14.085   0.791  -5.451  0.00  0.00    +0.023 A 
ATOM     14  C   UNL     1     -13.571   1.296  -4.256  0.00  0.00    +0.002 A 
ATOM     15  C   UNL     1     -13.790   0.613  -3.063  0.00  0.00    +0.000 A 
ATOM     16  C   UNL     1     -14.501  -0.586  -3.074  0.00  0.00    +0.002 A 
ATOM     17  C   UNL     1     -15.008  -1.094  -4.275  0.00  0.00    +0.023 A 
ENDBRANCH   9  12
ENDBRANCH   3   6
BRANCH   4  18
ATOM     18  C   UNL     1     -19.435   1.492  -7.492  0.00  0.00    +0.057 C 
ATOM     19  C   UNL     1     -19.742   0.001  -7.708  0.00  0.00    +0.036 C 
ATOM     20  C   UNL     1     -20.728   2.326  -7.544  0.00  0.00    +0.036 C 
ATOM     21  C   UNL     1     -18.884   1.643  -6.047  0.00  0.00    +0.036 C 
ENDBRANCH   4  18
BRANCH   1  24
ATOM     22  C   UNL     1     -17.693   3.140 -12.864  0.00  0.00    +0.010 C 
ATOM     23  C   UNL     1     -16.587   3.977 -12.321  0.00  0.00    +0.010 C 
ATOM     24  C   UNL     1     -17.868   3.829 -11.525  0.00  0.00    +0.040 C 
ENDBRANCH   1  24
TORSDOF 4
ENDMDL
MODEL 5
REMARK VINA RESULT:      -6.6      2.657      4.349
REMARK  Name = min_compound932.pdb
REMARK  7 active torsions:
REMARK  status: ('A' for Active; 'I' for Inactive)
REMARK    1  A    between atoms: _3  and  _5
REMARK    2  A    between atoms: _6  and  _11
REMARK    3  A    between atoms: _7  and  _15
REMARK    4  A    between atoms: _11  and  _12
REMARK    5  A    between atoms: _11  and  _13
REMARK    6  A    between atoms: _11  and  _14
REMARK    7  A    between atoms: _16  and  _17
REMARK                            x       y       z     vdW  Elec       q    Type
REMARK                         _______ _______ _______ _____ _____    ______ ____
ROOT
ATOM      1  C   UNL     1     -11.832   0.773 -17.294  0.00  0.00    +0.068 A 
ATOM      2  C   UNL     1     -12.435   1.465 -16.238  0.00  0.00    +0.068 A 
ATOM      3  C   UNL     1     -13.167   2.483 -16.820  0.00  0.00    +0.125 A 
ATOM      4  N   UNL     1     -13.005   2.304 -18.190  0.00  0.00    -0.245 N 
ATOM      5  N   UNL     1     -12.176   1.269 -18.478  0.00  0.00    -0.174 NA
ENDROOT
BRANCH   3   6
ATOM      6  N   UNL     1     -13.910   3.495 -16.216  0.00  0.00    -0.254 N 
ATOM      7  H   UNL     1     -13.471   4.378 -16.015  0.00  0.00    +0.158 HD
ATOM      8  C   UNL     1     -15.124   3.269 -15.614  0.00  0.00    +0.309 C 
ATOM      9  N   UNL     1     -15.744   4.333 -15.022  0.00  0.00    -0.269 N 
ATOM     10  H   UNL     1     -16.477   4.004 -14.405  0.00  0.00    +0.156 HD
ATOM     11  O   UNL     1     -15.673   2.176 -15.485  0.00  0.00    -0.252 OA
BRANCH   9  12
ATOM     12  C   UNL     1     -15.614   5.725 -15.133  0.00  0.00    +0.035 A 
ATOM     13  C   UNL     1     -15.750   6.468 -13.953  0.00  0.00    +0.023 A 
ATOM     14  C   UNL     1     -15.636   7.859 -13.966  0.00  0.00    +0.002 A 
ATOM     15  C   UNL     1     -15.403   8.524 -15.166  0.00  0.00    +0.000 A 
ATOM     16  C   UNL     1     -15.309   7.798 -16.352  0.00  0.00    +0.002 A 
ATOM     17  C   UNL     1     -15.430   6.404 -16.337  0.00  0.00    +0.023 A 
ENDBRANCH   9  12
ENDBRANCH   3   6
BRANCH   4  18
ATOM     18  C   UNL     1     -13.567   3.067 -19.324  0.00  0.00    +0.057 C 
ATOM     19  C   UNL     1     -13.410   2.264 -20.626  0.00  0.00    +0.036 C 
ATOM     20  C   UNL     1     -12.895   4.447 -19.453  0.00  0.00    +0.036 C 
ATOM     21  C   UNL     1     -15.085   3.344 -19.134  0.00  0.00    +0.036 C 
ENDBRANCH   4  18
BRANCH   1  24
ATOM     22  C   UNL     1      -9.838  -0.299 -15.998  0.00  0.00    +0.010 C 
ATOM     23  C   UNL     1      -9.412  -0.206 -17.422  0.00  0.00    +0.010 C 
ATOM     24  C   UNL     1     -10.880  -0.395 -17.095  0.00  0.00    +0.040 C 
ENDBRANCH   1  24
TORSDOF 4
ENDMDL
MODEL 6
REMARK VINA RESULT:      -6.5      2.424      5.243
REMARK  Name = min_compound932.pdb
REMARK  7 active torsions:
REMARK  status: ('A' for Active; 'I' for Inactive)
REMARK    1  A    between atoms: _3  and  _5
REMARK    2  A    between atoms: _6  and  _11
REMARK    3  A    between atoms: _7  and  _15
REMARK    4  A    between atoms: _11  and  _12
REMARK    5  A    between atoms: _11  and  _13
REMARK    6  A    between atoms: _11  and  _14
REMARK    7  A    between atoms: _16  and  _17
REMARK                            x       y       z     vdW  Elec       q    Type
REMARK                         _______ _______ _______ _____ _____    ______ ____
ROOT
ATOM      1  C   UNL     1     -11.729   0.467 -17.397  0.00  0.00    +0.068 A 
ATOM      2  C   UNL     1     -12.530   0.845 -16.313  0.00  0.00    +0.068 A 
ATOM      3  C   UNL     1     -13.302   1.900 -16.761  0.00  0.00    +0.125 A 
ATOM      4  N   UNL     1     -12.959   2.052 -18.101  0.00  0.00    -0.245 N 
ATOM      5  N   UNL     1     -11.987   1.187 -18.484  0.00  0.00    -0.174 NA
ENDROOT
BRANCH   3   6
ATOM      6  N   UNL     1     -14.225   2.678 -16.066  0.00  0.00    -0.254 N 
ATOM      7  H   UNL     1     -15.208   2.501 -16.183  0.00  0.00    +0.158 HD
ATOM      8  C   UNL     1     -13.888   3.861 -15.453  0.00  0.00    +0.309 C 
ATOM      9  N   UNL     1     -14.888   4.557 -14.832  0.00  0.00    -0.269 N 
ATOM     10  H   UNL     1     -14.583   5.506 -14.652  0.00  0.00    +0.156 HD
ATOM     11  O   UNL     1     -12.783   4.399 -15.479  0.00  0.00    -0.252 OA
BRANCH   9  12
ATOM     12  C   UNL     1     -16.167   4.223 -14.366  0.00  0.00    +0.035 A 
ATOM     13  C   UNL     1     -16.232   3.447 -13.201  0.00  0.00    +0.023 A 
ATOM     14  C   UNL     1     -17.462   3.065 -12.664  0.00  0.00    +0.002 A 
ATOM     15  C   UNL     1     -18.643   3.440 -13.299  0.00  0.00    +0.000 A 
ATOM     16  C   UNL     1     -18.588   4.175 -14.482  0.00  0.00    +0.002 A 
ATOM     17  C   UNL     1     -17.353   4.551 -15.022  0.00  0.00    +0.023 A 
ENDBRANCH   9  12
ENDBRANCH   3   6
BRANCH   4  18
ATOM     18  C   UNL     1     -13.468   3.001 -19.113  0.00  0.00    +0.057 C 
ATOM     19  C   UNL     1     -13.337   2.390 -20.519  0.00  0.00    +0.036 C 
ATOM     20  C   UNL     1     -12.726   4.348 -19.035  0.00  0.00    +0.036 C 
ATOM     21  C   UNL     1     -14.972   3.325 -18.891  0.00  0.00    +0.036 C 
ENDBRANCH   4  18
BRANCH   1  24
ATOM     22  C   UNL     1      -9.802  -0.703 -16.084  0.00  0.00    +0.010 C 
ATOM     23  C   UNL     1      -9.213  -0.239 -17.370  0.00  0.00    +0.010 C 
ATOM     24  C   UNL     1     -10.676  -0.627 -17.319  0.00  0.00    +0.040 C 
ENDBRANCH   1  24
TORSDOF 4
ENDMDL
MODEL 7
REMARK VINA RESULT:      -6.5      3.510      6.887
REMARK  Name = min_compound932.pdb
REMARK  7 active torsions:
REMARK  status: ('A' for Active; 'I' for Inactive)
REMARK    1  A    between atoms: _3  and  _5
REMARK    2  A    between atoms: _6  and  _11
REMARK    3  A    between atoms: _7  and  _15
REMARK    4  A    between atoms: _11  and  _12
REMARK    5  A    between atoms: _11  and  _13
REMARK    6  A    between atoms: _11  and  _14
REMARK    7  A    between atoms: _16  and  _17
REMARK                            x       y       z     vdW  Elec       q    Type
REMARK                         _______ _______ _______ _____ _____    ______ ____
ROOT
ATOM      1  C   UNL     1     -16.215   5.287 -12.309  0.00  0.00    +0.068 A 
ATOM      2  C   UNL     1     -14.894   5.077 -12.721  0.00  0.00    +0.068 A 
ATOM      3  C   UNL     1     -14.968   4.260 -13.833  0.00  0.00    +0.125 A 
ATOM      4  N   UNL     1     -16.329   4.078 -14.054  0.00  0.00    -0.245 N 
ATOM      5  N   UNL     1     -17.089   4.692 -13.114  0.00  0.00    -0.174 NA
ENDROOT
BRANCH   3   6
ATOM      6  N   UNL     1     -13.940   3.706 -14.593  0.00  0.00    -0.254 N 
ATOM      7  H   UNL     1     -13.321   3.034 -14.172  0.00  0.00    +0.158 HD
ATOM      8  C   UNL     1     -13.539   4.233 -15.797  0.00  0.00    +0.309 C 
ATOM      9  N   UNL     1     -12.495   3.625 -16.436  0.00  0.00    -0.269 N 
ATOM     10  H   UNL     1     -12.130   4.237 -17.156  0.00  0.00    +0.156 HD
ATOM     11  O   UNL     1     -13.979   5.255 -16.321  0.00  0.00    -0.252 OA
BRANCH   9  12
ATOM     12  C   UNL     1     -11.891   2.363 -16.337  0.00  0.00    +0.035 A 
ATOM     13  C   UNL     1     -12.559   1.294 -16.948  0.00  0.00    +0.023 A 
ATOM     14  C   UNL     1     -12.034   0.002 -16.901  0.00  0.00    +0.002 A 
ATOM     15  C   UNL     1     -10.841  -0.238 -16.225  0.00  0.00    +0.000 A 
ATOM     16  C   UNL     1     -10.191   0.811 -15.578  0.00  0.00    +0.002 A 
ATOM     17  C   UNL     1     -10.723   2.105 -15.621  0.00  0.00    +0.023 A 
ENDBRANCH   9  12
ENDBRANCH   3   6
BRANCH   4  18
ATOM     18  C   UNL     1     -17.029   3.320 -15.113  0.00  0.00    +0.057 C 
ATOM     19  C   UNL     1     -16.350   1.955 -15.318  0.00  0.00    +0.036 C 
ATOM     20  C   UNL     1     -17.065   4.112 -16.433  0.00  0.00    +0.036 C 
ATOM     21  C   UNL     1     -18.512   3.044 -14.737  0.00  0.00    +0.036 C 
ENDBRANCH   4  18
BRANCH   1  24
ATOM     22  C   UNL     1     -16.420   5.438  -9.712  0.00  0.00    +0.010 C 
ATOM     23  C   UNL     1     -17.790   5.652 -10.256  0.00  0.00    +0.010 C 
ATOM     24  C   UNL     1     -16.590   6.086 -11.072  0.00  0.00    +0.040 C 
ENDBRANCH   1  24
TORSDOF 4
ENDMDL
MODEL 8
REMARK VINA RESULT:      -6.5      2.111      6.885
REMARK  Name = min_compound932.pdb
REMARK  7 active torsions:
REMARK  status: ('A' for Active; 'I' for Inactive)
REMARK    1  A    between atoms: _3  and  _5
REMARK    2  A    between atoms: _6  and  _11
REMARK    3  A    between atoms: _7  and  _15
REMARK    4  A    between atoms: _11  and  _12
REMARK    5  A    between atoms: _11  and  _13
REMARK    6  A    between atoms: _11  and  _14
REMARK    7  A    between atoms: _16  and  _17
REMARK                            x       y       z     vdW  Elec       q    Type
REMARK                         _______ _______ _______ _____ _____    ______ ____
ROOT
ATOM      1  C   UNL     1     -14.081   4.859 -21.450  0.00  0.00    +0.068 A 
ATOM      2  C   UNL     1     -14.050   3.609 -20.820  0.00  0.00    +0.068 A 
ATOM      3  C   UNL     1     -13.449   3.818 -19.593  0.00  0.00    +0.125 A 
ATOM      4  N   UNL     1     -13.211   5.187 -19.538  0.00  0.00    -0.245 N 
ATOM      5  N   UNL     1     -13.583   5.820 -20.680  0.00  0.00    -0.174 NA
ENDROOT
BRANCH   3   6
ATOM      6  N   UNL     1     -13.123   2.897 -18.600  0.00  0.00    -0.254 N 
ATOM      7  H   UNL     1     -12.377   2.241 -18.760  0.00  0.00    +0.158 HD
ATOM      8  C   UNL     1     -13.944   2.636 -17.529  0.00  0.00    +0.309 C 
ATOM      9  N   UNL     1     -13.534   1.685 -16.637  0.00  0.00    -0.269 N 
ATOM     10  H   UNL     1     -14.315   1.401 -16.057  0.00  0.00    +0.156 HD
ATOM     11  O   UNL     1     -15.057   3.122 -17.337  0.00  0.00    -0.252 OA
BRANCH   9  12
ATOM     12  C   UNL     1     -12.300   1.091 -16.341  0.00  0.00    +0.035 A 
ATOM     13  C   UNL     1     -12.165  -0.271 -16.644  0.00  0.00    +0.023 A 
ATOM     14  C   UNL     1     -10.973  -0.947 -16.384  0.00  0.00    +0.002 A 
ATOM     15  C   UNL     1      -9.906  -0.272 -15.798  0.00  0.00    +0.000 A 
ATOM     16  C   UNL     1     -10.044   1.071 -15.453  0.00  0.00    +0.002 A 
ATOM     17  C   UNL     1     -11.243   1.745 -15.709  0.00  0.00    +0.023 A 
ENDBRANCH   9  12
ENDBRANCH   3   6
BRANCH   4  18
ATOM     18  C   UNL     1     -12.612   6.008 -18.465  0.00  0.00    +0.057 C 
ATOM     19  C   UNL     1     -13.697   6.430 -17.459  0.00  0.00    +0.036 C 
ATOM     20  C   UNL     1     -11.898   7.244 -19.043  0.00  0.00    +0.036 C 
ATOM     21  C   UNL     1     -11.533   5.219 -17.672  0.00  0.00    +0.036 C 
ENDBRANCH   4  18
BRANCH   1  24
ATOM     22  C   UNL     1     -13.750   4.632 -24.028  0.00  0.00    +0.010 C 
ATOM     23  C   UNL     1     -13.920   6.085 -23.752  0.00  0.00    +0.010 C 
ATOM     24  C   UNL     1     -14.609   5.073 -22.860  0.00  0.00    +0.040 C 
ENDBRANCH   1  24
TORSDOF 4
ENDMDL
MODEL 9
REMARK VINA RESULT:      -6.4      2.109      6.737
REMARK  Name = min_compound932.pdb
REMARK  7 active torsions:
REMARK  status: ('A' for Active; 'I' for Inactive)
REMARK    1  A    between atoms: _3  and  _5
REMARK    2  A    between atoms: _6  and  _11
REMARK    3  A    between atoms: _7  and  _15
REMARK    4  A    between atoms: _11  and  _12
REMARK    5  A    between atoms: _11  and  _13
REMARK    6  A    between atoms: _11  and  _14
REMARK    7  A    between atoms: _16  and  _17
REMARK                            x       y       z     vdW  Elec       q    Type
REMARK                         _______ _______ _______ _____ _____    ______ ____
ROOT
ATOM      1  C   UNL     1     -14.891   6.114 -18.512  0.00  0.00    +0.068 A 
ATOM      2  C   UNL     1     -14.016   5.162 -19.048  0.00  0.00    +0.068 A 
ATOM      3  C   UNL     1     -13.831   4.216 -18.057  0.00  0.00    +0.125 A 
ATOM      4  N   UNL     1     -14.651   4.627 -17.011  0.00  0.00    -0.245 N 
ATOM      5  N   UNL     1     -15.285   5.795 -17.284  0.00  0.00    -0.174 NA
ENDROOT
BRANCH   3   6
ATOM      6  N   UNL     1     -13.012   3.090 -18.051  0.00  0.00    -0.254 N 
ATOM      7  H   UNL     1     -12.202   3.071 -17.455  0.00  0.00    +0.158 HD
ATOM      8  C   UNL     1     -13.076   2.118 -19.020  0.00  0.00    +0.309 C 
ATOM      9  N   UNL     1     -12.196   1.076 -18.929  0.00  0.00    -0.269 N 
ATOM     10  H   UNL     1     -12.161   0.579 -19.811  0.00  0.00    +0.156 HD
ATOM     11  O   UNL     1     -13.801   2.136 -20.014  0.00  0.00    -0.252 OA
BRANCH   9  12
ATOM     12  C   UNL     1     -11.410   0.549 -17.895  0.00  0.00    +0.035 A 
ATOM     13  C   UNL     1     -12.071  -0.223 -16.931  0.00  0.00    +0.023 A 
ATOM     14  C   UNL     1     -11.371  -0.788 -15.864  0.00  0.00    +0.002 A 
ATOM     15  C   UNL     1     -10.002  -0.571 -15.740  0.00  0.00    +0.000 A 
ATOM     16  C   UNL     1      -9.342   0.230 -16.670  0.00  0.00    +0.002 A 
ATOM     17  C   UNL     1     -10.048   0.802 -17.735  0.00  0.00    +0.023 A 
ENDBRANCH   9  12
ENDBRANCH   3   6
BRANCH   4  18
ATOM     18  C   UNL     1     -14.897   4.007 -15.692  0.00  0.00    +0.057 C 
ATOM     19  C   UNL     1     -13.560   3.742 -14.979  0.00  0.00    +0.036 C 
ATOM     20  C   UNL     1     -15.704   2.703 -15.833  0.00  0.00    +0.036 C 
ATOM     21  C   UNL     1     -15.735   4.934 -14.768  0.00  0.00    +0.036 C 
ENDBRANCH   4  18
BRANCH   1  24
ATOM     22  C   UNL     1     -16.587   7.333 -20.075  0.00  0.00    +0.010 C 
ATOM     23  C   UNL     1     -15.269   7.380 -20.767  0.00  0.00    +0.010 C 
ATOM     24  C   UNL     1     -15.315   7.372 -19.253  0.00  0.00    +0.040 C 
ENDBRANCH   1  24
TORSDOF 4
ENDMDL
