MODEL 1
REMARK VINA RESULT:      -8.0      0.000      0.000
REMARK  Name = min_compound953.pdb
REMARK  4 active torsions:
REMARK  status: ('A' for Active; 'I' for Inactive)
REMARK    1  A    between atoms: _5  and  _14
REMARK    2  A    between atoms: _5  and  _15
REMARK    3  A    between atoms: _6  and  _13
REMARK    4  A    between atoms: _12  and  _16
REMARK                            x       y       z     vdW  Elec       q    Type
REMARK                         _______ _______ _______ _____ _____    ______ ____
ROOT
ATOM      1  C   UNL     1     -11.023   3.824 -16.078  0.00  0.00    +0.304 C 
ATOM      2  O   UNL     1     -12.282   3.724 -16.579  0.00  0.00    -0.436 OA
ATOM      3  C   UNL     1     -12.403   4.894 -17.382  0.00  0.00    +0.222 C 
ATOM      4  C   UNL     1     -13.562   5.720 -16.912  0.00  0.00    +0.214 C 
ATOM      5  C   UNL     1     -14.468   6.405 -17.916  0.00  0.00    +0.099 C 
ATOM      6  C   UNL     1     -15.162   7.665 -17.518  0.00  0.00    +0.044 C 
ATOM      7  C   UNL     1     -14.382   6.099 -19.390  0.00  0.00    +0.044 C 
ATOM      8  C   UNL     1     -13.012   5.548 -19.836  0.00  0.00    -0.027 C 
ATOM      9  C   UNL     1     -12.003   6.702 -19.970  0.00  0.00    +0.011 C 
ATOM     10  C   UNL     1     -13.167   4.900 -21.229  0.00  0.00    +0.011 C 
ATOM     11  O   UNL     1     -14.896   5.248 -17.169  0.00  0.00    -0.359 OA
ATOM     12  C   UNL     1     -12.533   4.454 -18.850  0.00  0.00    +0.079 C 
ATOM     13  N   UNL     1     -11.158   5.659 -17.155  0.00  0.00    -0.222 N 
ATOM     14  H   UNL     1     -10.941   6.545 -17.525  0.00  0.00    +0.172 HD
ATOM     15  N   UNL     1     -10.373   4.911 -16.344  0.00  0.00    -0.131 NA
ATOM     16  N   UNL     1     -10.592   2.822 -15.310  0.00  0.00    -0.268 N 
ATOM     17  H   UNL     1     -10.463   2.941 -14.341  0.00  0.00    +0.157 HD
ENDROOT
BRANCH  16  18
ATOM     18  C   UNL     1     -10.337   1.627 -15.915  0.00  0.00    +0.035 A 
ATOM     19  C   UNL     1     -10.063   1.468 -17.286  0.00  0.00    +0.023 A 
ATOM     20  C   UNL     1      -9.780   0.219 -17.848  0.00  0.00    +0.002 A 
ATOM     21  C   UNL     1      -9.755  -0.916 -17.043  0.00  0.00    +0.000 A 
ATOM     22  C   UNL     1     -10.009  -0.792 -15.680  0.00  0.00    +0.002 A 
ATOM     23  C   UNL     1     -10.291   0.465 -15.129  0.00  0.00    +0.023 A 
ENDBRANCH  16  18
TORSDOF 1
ENDMDL
MODEL 2
REMARK VINA RESULT:      -7.5      4.325      6.161
REMARK  Name = min_compound953.pdb
REMARK  4 active torsions:
REMARK  status: ('A' for Active; 'I' for Inactive)
REMARK    1  A    between atoms: _5  and  _14
REMARK    2  A    between atoms: _5  and  _15
REMARK    3  A    between atoms: _6  and  _13
REMARK    4  A    between atoms: _12  and  _16
REMARK                            x       y       z     vdW  Elec       q    Type
REMARK                         _______ _______ _______ _____ _____    ______ ____
ROOT
ATOM      1  C   UNL     1     -15.926   4.030 -15.086  0.00  0.00    +0.304 C 
ATOM      2  O   UNL     1     -15.020   3.027 -15.223  0.00  0.00    -0.436 OA
ATOM      3  C   UNL     1     -14.117   3.538 -16.198  0.00  0.00    +0.222 C 
ATOM      4  C   UNL     1     -14.059   2.613 -17.376  0.00  0.00    +0.214 C 
ATOM      5  C   UNL     1     -12.735   2.330 -18.059  0.00  0.00    +0.099 C 
ATOM      6  C   UNL     1     -12.732   1.982 -19.510  0.00  0.00    +0.044 C 
ATOM      7  C   UNL     1     -11.427   2.770 -17.452  0.00  0.00    +0.044 C 
ATOM      8  C   UNL     1     -11.556   3.963 -16.482  0.00  0.00    -0.027 C 
ATOM      9  C   UNL     1     -11.679   5.273 -17.280  0.00  0.00    +0.011 C 
ATOM     10  C   UNL     1     -10.270   4.053 -15.632  0.00  0.00    +0.011 C 
ATOM     11  O   UNL     1     -13.389   1.348 -17.229  0.00  0.00    -0.359 OA
ATOM     12  C   UNL     1     -12.750   3.740 -15.522  0.00  0.00    +0.079 C 
ATOM     13  N   UNL     1     -14.697   4.824 -16.638  0.00  0.00    -0.222 N 
ATOM     14  H   UNL     1     -14.345   5.413 -17.343  0.00  0.00    +0.172 HD
ATOM     15  N   UNL     1     -15.805   5.039 -15.889  0.00  0.00    -0.131 NA
ATOM     16  N   UNL     1     -16.891   3.860 -14.182  0.00  0.00    -0.268 N 
ATOM     17  H   UNL     1     -17.826   3.711 -14.454  0.00  0.00    +0.157 HD
ENDROOT
BRANCH  16  18
ATOM     18  C   UNL     1     -16.537   3.901 -12.866  0.00  0.00    +0.035 A 
ATOM     19  C   UNL     1     -15.536   4.733 -12.333  0.00  0.00    +0.023 A 
ATOM     20  C   UNL     1     -15.234   4.752 -10.967  0.00  0.00    +0.002 A 
ATOM     21  C   UNL     1     -15.940   3.937 -10.087  0.00  0.00    +0.000 A 
ATOM     22  C   UNL     1     -16.946   3.110 -10.580  0.00  0.00    +0.002 A 
ATOM     23  C   UNL     1     -17.238   3.100 -11.950  0.00  0.00    +0.023 A 
ENDBRANCH  16  18
TORSDOF 1
ENDMDL
MODEL 3
REMARK VINA RESULT:      -7.5      1.939      2.216
REMARK  Name = min_compound953.pdb
REMARK  4 active torsions:
REMARK  status: ('A' for Active; 'I' for Inactive)
REMARK    1  A    between atoms: _5  and  _14
REMARK    2  A    between atoms: _5  and  _15
REMARK    3  A    between atoms: _6  and  _13
REMARK    4  A    between atoms: _12  and  _16
REMARK                            x       y       z     vdW  Elec       q    Type
REMARK                         _______ _______ _______ _____ _____    ______ ____
ROOT
ATOM      1  C   UNL     1     -13.473   2.728 -16.739  0.00  0.00    +0.304 C 
ATOM      2  O   UNL     1     -13.646   2.948 -18.069  0.00  0.00    -0.436 OA
ATOM      3  C   UNL     1     -13.853   4.356 -18.138  0.00  0.00    +0.222 C 
ATOM      4  C   UNL     1     -15.178   4.647 -18.777  0.00  0.00    +0.214 C 
ATOM      5  C   UNL     1     -15.318   5.799 -19.754  0.00  0.00    +0.099 C 
ATOM      6  C   UNL     1     -16.640   6.478 -19.882  0.00  0.00    +0.044 C 
ATOM      7  C   UNL     1     -14.111   6.528 -20.287  0.00  0.00    +0.044 C 
ATOM      8  C   UNL     1     -12.869   6.434 -19.376  0.00  0.00    -0.027 C 
ATOM      9  C   UNL     1     -13.005   7.422 -18.204  0.00  0.00    +0.011 C 
ATOM     10  C   UNL     1     -11.624   6.846 -20.191  0.00  0.00    +0.011 C 
ATOM     11  O   UNL     1     -15.328   4.424 -20.190  0.00  0.00    -0.359 OA
ATOM     12  C   UNL     1     -12.669   4.974 -18.900  0.00  0.00    +0.079 C 
ATOM     13  N   UNL     1     -13.895   4.819 -16.736  0.00  0.00    -0.222 N 
ATOM     14  H   UNL     1     -14.072   5.737 -16.428  0.00  0.00    +0.172 HD
ATOM     15  N   UNL     1     -13.643   3.743 -15.953  0.00  0.00    -0.131 NA
ATOM     16  N   UNL     1     -13.203   1.480 -16.359  0.00  0.00    -0.268 N 
ATOM     17  H   UNL     1     -13.864   0.942 -15.865  0.00  0.00    +0.157 HD
ENDROOT
BRANCH  16  18
ATOM     18  C   UNL     1     -11.977   0.974 -16.677  0.00  0.00    +0.035 A 
ATOM     19  C   UNL     1     -10.893   1.739 -17.144  0.00  0.00    +0.023 A 
ATOM     20  C   UNL     1      -9.649   1.169 -17.429  0.00  0.00    +0.002 A 
ATOM     21  C   UNL     1      -9.450  -0.196 -17.245  0.00  0.00    +0.000 A 
ATOM     22  C   UNL     1     -10.498  -0.981 -16.773  0.00  0.00    +0.002 A 
ATOM     23  C   UNL     1     -11.741  -0.397 -16.491  0.00  0.00    +0.023 A 
ENDBRANCH  16  18
TORSDOF 1
ENDMDL
MODEL 4
REMARK VINA RESULT:      -7.4      3.385      4.501
REMARK  Name = min_compound953.pdb
REMARK  4 active torsions:
REMARK  status: ('A' for Active; 'I' for Inactive)
REMARK    1  A    between atoms: _5  and  _14
REMARK    2  A    between atoms: _5  and  _15
REMARK    3  A    between atoms: _6  and  _13
REMARK    4  A    between atoms: _12  and  _16
REMARK                            x       y       z     vdW  Elec       q    Type
REMARK                         _______ _______ _______ _____ _____    ______ ____
ROOT
ATOM      1  C   UNL     1     -13.707   3.313 -17.520  0.00  0.00    +0.304 C 
ATOM      2  O   UNL     1     -13.798   4.004 -16.354  0.00  0.00    -0.436 OA
ATOM      3  C   UNL     1     -15.203   4.095 -16.141  0.00  0.00    +0.222 C 
ATOM      4  C   UNL     1     -15.614   5.534 -16.046  0.00  0.00    +0.214 C 
ATOM      5  C   UNL     1     -16.655   5.965 -15.031  0.00  0.00    +0.099 C 
ATOM      6  C   UNL     1     -17.505   7.154 -15.331  0.00  0.00    +0.044 C 
ATOM      7  C   UNL     1     -17.130   5.031 -13.948  0.00  0.00    +0.044 C 
ATOM      8  C   UNL     1     -16.957   3.536 -14.287  0.00  0.00    -0.027 C 
ATOM      9  C   UNL     1     -18.081   3.082 -15.235  0.00  0.00    +0.011 C 
ATOM     10  C   UNL     1     -17.082   2.714 -12.987  0.00  0.00    +0.011 C 
ATOM     11  O   UNL     1     -15.256   6.279 -14.869  0.00  0.00    -0.359 OA
ATOM     12  C   UNL     1     -15.547   3.286 -14.878  0.00  0.00    +0.079 C 
ATOM     13  N   UNL     1     -15.824   3.506 -17.345  0.00  0.00    -0.222 N 
ATOM     14  H   UNL     1     -16.787   3.456 -17.542  0.00  0.00    +0.172 HD
ATOM     15  N   UNL     1     -14.819   3.048 -18.128  0.00  0.00    -0.131 NA
ATOM     16  N   UNL     1     -12.484   3.020 -17.961  0.00  0.00    -0.268 N 
ATOM     17  H   UNL     1     -12.110   3.460 -18.759  0.00  0.00    +0.157 HD
ENDROOT
BRANCH  16  18
ATOM     18  C   UNL     1     -11.767   2.090 -17.267  0.00  0.00    +0.035 A 
ATOM     19  C   UNL     1     -10.961   2.373 -16.150  0.00  0.00    +0.023 A 
ATOM     20  C   UNL     1     -10.270   1.372 -15.460  0.00  0.00    +0.002 A 
ATOM     21  C   UNL     1     -10.375   0.045 -15.867  0.00  0.00    +0.000 A 
ATOM     22  C   UNL     1     -11.175  -0.270 -16.962  0.00  0.00    +0.002 A 
ATOM     23  C   UNL     1     -11.862   0.742 -17.646  0.00  0.00    +0.023 A 
ENDBRANCH  16  18
TORSDOF 1
ENDMDL
MODEL 5
REMARK VINA RESULT:      -7.2      4.524      6.163
REMARK  Name = min_compound953.pdb
REMARK  4 active torsions:
REMARK  status: ('A' for Active; 'I' for Inactive)
REMARK    1  A    between atoms: _5  and  _14
REMARK    2  A    between atoms: _5  and  _15
REMARK    3  A    between atoms: _6  and  _13
REMARK    4  A    between atoms: _12  and  _16
REMARK                            x       y       z     vdW  Elec       q    Type
REMARK                         _______ _______ _______ _____ _____    ______ ____
ROOT
ATOM      1  C   UNL     1     -15.118   4.564 -15.988  0.00  0.00    +0.304 C 
ATOM      2  O   UNL     1     -14.996   5.444 -14.961  0.00  0.00    -0.436 OA
ATOM      3  C   UNL     1     -16.077   5.092 -14.104  0.00  0.00    +0.222 C 
ATOM      4  C   UNL     1     -16.975   6.275 -13.900  0.00  0.00    +0.214 C 
ATOM      5  C   UNL     1     -17.572   6.554 -12.535  0.00  0.00    +0.099 C 
ATOM      6  C   UNL     1     -18.883   7.263 -12.452  0.00  0.00    +0.044 C 
ATOM      7  C   UNL     1     -17.110   5.809 -11.308  0.00  0.00    +0.044 C 
ATOM      8  C   UNL     1     -16.483   4.433 -11.609  0.00  0.00    -0.027 C 
ATOM      9  C   UNL     1     -17.592   3.400 -11.875  0.00  0.00    +0.011 C 
ATOM     10  C   UNL     1     -15.696   3.963 -10.367  0.00  0.00    +0.011 C 
ATOM     11  O   UNL     1     -16.510   7.363 -13.082  0.00  0.00    -0.359 OA
ATOM     12  C   UNL     1     -15.488   4.550 -12.791  0.00  0.00    +0.079 C 
ATOM     13  N   UNL     1     -16.832   4.048 -14.829  0.00  0.00    -0.222 N 
ATOM     14  H   UNL     1     -17.669   3.621 -14.535  0.00  0.00    +0.172 HD
ATOM     15  N   UNL     1     -16.156   3.790 -15.973  0.00  0.00    -0.131 NA
ATOM     16  N   UNL     1     -14.193   4.615 -16.947  0.00  0.00    -0.268 N 
ATOM     17  H   UNL     1     -14.410   4.947 -17.848  0.00  0.00    +0.157 HD
ENDROOT
BRANCH  16  18
ATOM     18  C   UNL     1     -12.935   4.191 -16.635  0.00  0.00    +0.035 A 
ATOM     19  C   UNL     1     -11.757   4.908 -16.912  0.00  0.00    +0.023 A 
ATOM     20  C   UNL     1     -10.494   4.436 -16.543  0.00  0.00    +0.002 A 
ATOM     21  C   UNL     1     -10.374   3.224 -15.870  0.00  0.00    +0.000 A 
ATOM     22  C   UNL     1     -11.521   2.494 -15.569  0.00  0.00    +0.002 A 
ATOM     23  C   UNL     1     -12.781   2.978 -15.944  0.00  0.00    +0.023 A 
ENDBRANCH  16  18
TORSDOF 1
ENDMDL
MODEL 6
REMARK VINA RESULT:      -7.0     13.256     16.184
REMARK  Name = min_compound953.pdb
REMARK  4 active torsions:
REMARK  status: ('A' for Active; 'I' for Inactive)
REMARK    1  A    between atoms: _5  and  _14
REMARK    2  A    between atoms: _5  and  _15
REMARK    3  A    between atoms: _6  and  _13
REMARK    4  A    between atoms: _12  and  _16
REMARK                            x       y       z     vdW  Elec       q    Type
REMARK                         _______ _______ _______ _____ _____    ______ ____
ROOT
ATOM      1  C   UNL     1     -14.112  -0.763  -4.430  0.00  0.00    +0.304 C 
ATOM      2  O   UNL     1     -14.619  -2.020  -4.339  0.00  0.00    -0.436 OA
ATOM      3  C   UNL     1     -14.963  -2.130  -2.961  0.00  0.00    +0.222 C 
ATOM      4  C   UNL     1     -14.235  -3.286  -2.343  0.00  0.00    +0.214 C 
ATOM      5  C   UNL     1     -14.939  -4.184  -1.343  0.00  0.00    +0.099 C 
ATOM      6  C   UNL     1     -14.127  -4.871  -0.296  0.00  0.00    +0.044 C 
ATOM      7  C   UNL     1     -16.426  -4.094  -1.117  0.00  0.00    +0.044 C 
ATOM      8  C   UNL     1     -17.036  -2.726  -1.488  0.00  0.00    -0.027 C 
ATOM      9  C   UNL     1     -16.758  -1.709  -0.367  0.00  0.00    +0.011 C 
ATOM     10  C   UNL     1     -18.567  -2.881  -1.608  0.00  0.00    +0.011 C 
ATOM     11  O   UNL     1     -14.643  -4.622  -2.685  0.00  0.00    -0.359 OA
ATOM     12  C   UNL     1     -16.492  -2.258  -2.861  0.00  0.00    +0.079 C 
ATOM     13  N   UNL     1     -14.482  -0.882  -2.333  0.00  0.00    -0.222 N 
ATOM     14  H   UNL     1     -14.519  -0.657  -1.376  0.00  0.00    +0.172 HD
ATOM     15  N   UNL     1     -13.982  -0.105  -3.323  0.00  0.00    -0.131 NA
ATOM     16  N   UNL     1     -13.742  -0.342  -5.640  0.00  0.00    -0.268 N 
ATOM     17  H   UNL     1     -12.792  -0.215  -5.867  0.00  0.00    +0.157 HD
ENDROOT
BRANCH  16  18
ATOM     18  C   UNL     1     -14.726  -0.092  -6.550  0.00  0.00    +0.035 A 
ATOM     19  C   UNL     1     -15.659  -1.044  -7.000  0.00  0.00    +0.023 A 
ATOM     20  C   UNL     1     -16.666  -0.723  -7.917  0.00  0.00    +0.002 A 
ATOM     21  C   UNL     1     -16.773   0.575  -8.406  0.00  0.00    +0.000 A 
ATOM     22  C   UNL     1     -15.873   1.545  -7.972  0.00  0.00    +0.002 A 
ATOM     23  C   UNL     1     -14.869   1.211  -7.053  0.00  0.00    +0.023 A 
ENDBRANCH  16  18
TORSDOF 1
ENDMDL
MODEL 7
REMARK VINA RESULT:      -7.0     11.057     12.217
REMARK  Name = min_compound953.pdb
REMARK  4 active torsions:
REMARK  status: ('A' for Active; 'I' for Inactive)
REMARK    1  A    between atoms: _5  and  _14
REMARK    2  A    between atoms: _5  and  _15
REMARK    3  A    between atoms: _6  and  _13
REMARK    4  A    between atoms: _12  and  _16
REMARK                            x       y       z     vdW  Elec       q    Type
REMARK                         _______ _______ _______ _____ _____    ______ ____
ROOT
ATOM      1  C   UNL     1     -17.582   3.295  -5.116  0.00  0.00    +0.304 C 
ATOM      2  O   UNL     1     -17.688   2.543  -6.243  0.00  0.00    -0.436 OA
ATOM      3  C   UNL     1     -17.910   3.516  -7.260  0.00  0.00    +0.222 C 
ATOM      4  C   UNL     1     -19.203   3.235  -7.964  0.00  0.00    +0.214 C 
ATOM      5  C   UNL     1     -19.308   3.406  -9.467  0.00  0.00    +0.099 C 
ATOM      6  C   UNL     1     -20.630   3.756 -10.062  0.00  0.00    +0.044 C 
ATOM      7  C   UNL     1     -18.084   3.631 -10.319  0.00  0.00    +0.044 C 
ATOM      8  C   UNL     1     -16.890   4.239  -9.553  0.00  0.00    -0.027 C 
ATOM      9  C   UNL     1     -17.100   5.753  -9.374  0.00  0.00    +0.011 C 
ATOM     10  C   UNL     1     -15.610   4.042 -10.393  0.00  0.00    +0.011 C 
ATOM     11  O   UNL     1     -19.277   2.103  -8.849  0.00  0.00    -0.359 OA
ATOM     12  C   UNL     1     -16.696   3.504  -8.204  0.00  0.00    +0.079 C 
ATOM     13  N   UNL     1     -18.031   4.807  -6.551  0.00  0.00    -0.222 N 
ATOM     14  H   UNL     1     -18.236   5.680  -6.958  0.00  0.00    +0.172 HD
ATOM     15  N   UNL     1     -17.806   4.564  -5.239  0.00  0.00    -0.131 NA
ATOM     16  N   UNL     1     -17.315   2.652  -3.979  0.00  0.00    -0.268 N 
ATOM     17  H   UNL     1     -17.993   2.565  -3.271  0.00  0.00    +0.157 HD
ENDROOT
BRANCH  16  18
ATOM     18  C   UNL     1     -16.068   2.121  -3.832  0.00  0.00    +0.035 A 
ATOM     19  C   UNL     1     -14.873   2.863  -3.867  0.00  0.00    +0.023 A 
ATOM     20  C   UNL     1     -13.622   2.267  -3.682  0.00  0.00    +0.002 A 
ATOM     21  C   UNL     1     -13.531   0.899  -3.445  0.00  0.00    +0.000 A 
ATOM     22  C   UNL     1     -14.695   0.136  -3.392  0.00  0.00    +0.002 A 
ATOM     23  C   UNL     1     -15.943   0.745  -3.579  0.00  0.00    +0.023 A 
ENDBRANCH  16  18
TORSDOF 1
ENDMDL
MODEL 8
REMARK VINA RESULT:      -6.8      2.042      2.638
REMARK  Name = min_compound953.pdb
REMARK  4 active torsions:
REMARK  status: ('A' for Active; 'I' for Inactive)
REMARK    1  A    between atoms: _5  and  _14
REMARK    2  A    between atoms: _5  and  _15
REMARK    3  A    between atoms: _6  and  _13
REMARK    4  A    between atoms: _12  and  _16
REMARK                            x       y       z     vdW  Elec       q    Type
REMARK                         _______ _______ _______ _____ _____    ______ ____
ROOT
ATOM      1  C   UNL     1     -12.562   3.644 -17.347  0.00  0.00    +0.304 C 
ATOM      2  O   UNL     1     -13.724   3.166 -17.864  0.00  0.00    -0.436 OA
ATOM      3  C   UNL     1     -13.819   3.835 -19.118  0.00  0.00    +0.222 C 
ATOM      4  C   UNL     1     -15.094   4.619 -19.185  0.00  0.00    +0.214 C 
ATOM      5  C   UNL     1     -15.897   4.664 -20.471  0.00  0.00    +0.099 C 
ATOM      6  C   UNL     1     -16.736   5.864 -20.755  0.00  0.00    +0.044 C 
ATOM      7  C   UNL     1     -15.575   3.754 -21.629  0.00  0.00    +0.044 C 
ATOM      8  C   UNL     1     -14.117   3.252 -21.646  0.00  0.00    -0.027 C 
ATOM      9  C   UNL     1     -13.191   4.353 -22.195  0.00  0.00    +0.011 C 
ATOM     10  C   UNL     1     -14.019   2.043 -22.601  0.00  0.00    +0.011 C 
ATOM     11  O   UNL     1     -16.337   3.908 -19.324  0.00  0.00    -0.359 OA
ATOM     12  C   UNL     1     -13.701   2.780 -20.231  0.00  0.00    +0.079 C 
ATOM     13  N   UNL     1     -12.683   4.780 -19.147  0.00  0.00    -0.222 N 
ATOM     14  H   UNL     1     -12.484   5.433 -19.857  0.00  0.00    +0.172 HD
ATOM     15  N   UNL     1     -11.967   4.579 -18.016  0.00  0.00    -0.131 NA
ATOM     16  N   UNL     1     -12.171   3.151 -16.172  0.00  0.00    -0.268 N 
ATOM     17  H   UNL     1     -12.192   3.700 -15.355  0.00  0.00    +0.157 HD
ENDROOT
BRANCH  16  18
ATOM     18  C   UNL     1     -11.739   1.858 -16.142  0.00  0.00    +0.035 A 
ATOM     19  C   UNL     1     -12.488   0.755 -16.591  0.00  0.00    +0.023 A 
ATOM     20  C   UNL     1     -11.981  -0.549 -16.561  0.00  0.00    +0.002 A 
ATOM     21  C   UNL     1     -10.695  -0.786 -16.085  0.00  0.00    +0.000 A 
ATOM     22  C   UNL     1      -9.923   0.286 -15.645  0.00  0.00    +0.002 A 
ATOM     23  C   UNL     1     -10.441   1.587 -15.679  0.00  0.00    +0.023 A 
ENDBRANCH  16  18
TORSDOF 1
ENDMDL
MODEL 9
REMARK VINA RESULT:      -6.8     10.921     13.587
REMARK  Name = min_compound953.pdb
REMARK  4 active torsions:
REMARK  status: ('A' for Active; 'I' for Inactive)
REMARK    1  A    between atoms: _5  and  _14
REMARK    2  A    between atoms: _5  and  _15
REMARK    3  A    between atoms: _6  and  _13
REMARK    4  A    between atoms: _12  and  _16
REMARK                            x       y       z     vdW  Elec       q    Type
REMARK                         _______ _______ _______ _____ _____    ______ ____
ROOT
ATOM      1  C   UNL     1     -17.233   1.353  -7.975  0.00  0.00    +0.304 C 
ATOM      2  O   UNL     1     -17.416   1.604  -6.653  0.00  0.00    -0.436 OA
ATOM      3  C   UNL     1     -16.496   0.716  -6.025  0.00  0.00    +0.222 C 
ATOM      4  C   UNL     1     -17.226  -0.199  -5.089  0.00  0.00    +0.214 C 
ATOM      5  C   UNL     1     -16.621  -0.557  -3.745  0.00  0.00    +0.099 C 
ATOM      6  C   UNL     1     -16.963  -1.872  -3.128  0.00  0.00    +0.044 C 
ATOM      7  C   UNL     1     -15.406   0.161  -3.214  0.00  0.00    +0.044 C 
ATOM      8  C   UNL     1     -14.530   0.805  -4.308  0.00  0.00    -0.027 C 
ATOM      9  C   UNL     1     -13.657  -0.270  -4.979  0.00  0.00    +0.011 C 
ATOM     10  C   UNL     1     -13.582   1.829  -3.647  0.00  0.00    +0.011 C 
ATOM     11  O   UNL     1     -17.745   0.340  -3.860  0.00  0.00    -0.359 OA
ATOM     12  C   UNL     1     -15.420   1.563  -5.324  0.00  0.00    +0.079 C 
ATOM     13  N   UNL     1     -15.919  -0.092  -7.119  0.00  0.00    -0.222 N 
ATOM     14  H   UNL     1     -15.281  -0.836  -7.023  0.00  0.00    +0.172 HD
ATOM     15  N   UNL     1     -16.431   0.382  -8.279  0.00  0.00    -0.131 NA
ATOM     16  N   UNL     1     -17.937   2.086  -8.838  0.00  0.00    -0.268 N 
ATOM     17  H   UNL     1     -18.670   1.692  -9.363  0.00  0.00    +0.157 HD
ENDROOT
BRANCH  16  18
ATOM     18  C   UNL     1     -17.605   3.402  -8.966  0.00  0.00    +0.035 A 
ATOM     19  C   UNL     1     -18.218   4.454  -8.259  0.00  0.00    +0.023 A 
ATOM     20  C   UNL     1     -17.816   5.785  -8.411  0.00  0.00    +0.002 A 
ATOM     21  C   UNL     1     -16.774   6.103  -9.276  0.00  0.00    +0.000 A 
ATOM     22  C   UNL     1     -16.137   5.085  -9.981  0.00  0.00    +0.002 A 
ATOM     23  C   UNL     1     -16.549   3.755  -9.821  0.00  0.00    +0.023 A 
ENDBRANCH  16  18
TORSDOF 1
ENDMDL
