MODEL 1
REMARK VINA RESULT:      -5.4      0.000      0.000
REMARK  Name = min_compound951.pdb
REMARK  0 active torsions:
REMARK  status: ('A' for Active; 'I' for Inactive)
REMARK                            x       y       z     vdW  Elec       q    Type
REMARK                         _______ _______ _______ _____ _____    ______ ____
ROOT
ATOM      1 CL   UNL     1     -11.920   6.327 -17.534  0.00  0.00    -0.080 Cl
ATOM      2  C   UNL     1     -12.018   4.613 -17.807  0.00  0.00    +0.081 A 
ATOM      3  C   UNL     1     -12.865   4.088 -18.803  0.00  0.00    +0.081 A 
ATOM      4  C   UNL     1     -12.941   2.697 -19.021  0.00  0.00    +0.088 A 
ATOM      5 CL   UNL     1     -13.947   1.967 -20.215  0.00  0.00    -0.080 Cl
ATOM      6  C   UNL     1     -12.150   1.876 -18.217  0.00  0.00    +0.107 A 
ATOM      7  N   UNL     1     -11.973   0.522 -18.150  0.00  0.00    -0.256 N 
ATOM      8  N   UNL     1     -11.092   0.184 -17.198  0.00  0.00    -0.067 NA
ATOM      9  N   UNL     1     -10.674   1.305 -16.625  0.00  0.00    -0.128 NA
ATOM     10  H   UNL     1     -12.406  -0.210 -18.703  0.00  0.00    +0.191 HD
ATOM     11  C   UNL     1     -11.305   2.363 -17.228  0.00  0.00    +0.134 A 
ATOM     12 CL   UNL     1     -13.834   5.152 -19.783  0.00  0.00    -0.080 Cl
ATOM     13  C   UNL     1     -11.240   3.747 -17.022  0.00  0.00    +0.090 A 
ATOM     14 CL   UNL     1     -10.168   4.236 -15.779  0.00  0.00    -0.080 Cl
ENDROOT
TORSDOF 0
ENDMDL
MODEL 2
REMARK VINA RESULT:      -5.1      0.371      3.195
REMARK  Name = min_compound951.pdb
REMARK  0 active torsions:
REMARK  status: ('A' for Active; 'I' for Inactive)
REMARK                            x       y       z     vdW  Elec       q    Type
REMARK                         _______ _______ _______ _____ _____    ______ ____
ROOT
ATOM      1 CL   UNL     1     -13.796   5.410 -19.823  0.00  0.00    -0.080 Cl
ATOM      2  C   UNL     1     -12.818   4.387 -18.813  0.00  0.00    +0.081 A 
ATOM      3  C   UNL     1     -11.889   4.940 -17.909  0.00  0.00    +0.081 A 
ATOM      4  C   UNL     1     -11.098   4.106 -17.092  0.00  0.00    +0.088 A 
ATOM      5 CL   UNL     1      -9.939   4.693 -15.961  0.00  0.00    -0.080 Cl
ATOM      6  C   UNL     1     -11.275   2.729 -17.218  0.00  0.00    +0.107 A 
ATOM      7  N   UNL     1     -10.698   1.651 -16.605  0.00  0.00    -0.256 N 
ATOM      8  N   UNL     1     -11.199   0.495 -17.061  0.00  0.00    -0.067 NA
ATOM      9  N   UNL     1     -12.111   0.788 -17.978  0.00  0.00    -0.128 NA
ATOM     10  H   UNL     1      -9.979   1.628 -15.889  0.00  0.00    +0.191 HD
ATOM     11  C   UNL     1     -12.182   2.153 -18.098  0.00  0.00    +0.134 A 
ATOM     12 CL   UNL     1     -11.703   6.666 -17.787  0.00  0.00    -0.080 Cl
ATOM     13  C   UNL     1     -12.962   2.993 -18.904  0.00  0.00    +0.090 A 
ATOM     14 CL   UNL     1     -14.045   2.178 -19.951  0.00  0.00    -0.080 Cl
ENDROOT
TORSDOF 0
ENDMDL
MODEL 3
REMARK VINA RESULT:      -5.1     12.130     12.726
REMARK  Name = min_compound951.pdb
REMARK  0 active torsions:
REMARK  status: ('A' for Active; 'I' for Inactive)
REMARK                            x       y       z     vdW  Elec       q    Type
REMARK                         _______ _______ _______ _____ _____    ______ ____
ROOT
ATOM      1 CL   UNL     1     -17.233   3.776  -6.247  0.00  0.00    -0.080 Cl
ATOM      2  C   UNL     1     -16.607   2.154  -6.251  0.00  0.00    +0.081 A 
ATOM      3  C   UNL     1     -16.911   1.265  -7.301  0.00  0.00    +0.081 A 
ATOM      4  C   UNL     1     -16.401  -0.049  -7.299  0.00  0.00    +0.088 A 
ATOM      5 CL   UNL     1     -16.718  -1.203  -8.539  0.00  0.00    -0.080 Cl
ATOM      6  C   UNL     1     -15.594  -0.424  -6.225  0.00  0.00    +0.107 A 
ATOM      7  N   UNL     1     -14.945  -1.584  -5.901  0.00  0.00    -0.256 N 
ATOM      8  N   UNL     1     -14.276  -1.471  -4.746  0.00  0.00    -0.067 NA
ATOM      9  N   UNL     1     -14.471  -0.241  -4.289  0.00  0.00    -0.128 NA
ATOM     10  H   UNL     1     -14.915  -2.464  -6.404  0.00  0.00    +0.191 HD
ATOM     11  C   UNL     1     -15.276   0.428  -5.175  0.00  0.00    +0.134 A 
ATOM     12 CL   UNL     1     -17.923   1.778  -8.621  0.00  0.00    -0.080 Cl
ATOM     13  C   UNL     1     -15.790   1.732  -5.190  0.00  0.00    +0.090 A 
ATOM     14 CL   UNL     1     -15.336   2.695  -3.849  0.00  0.00    -0.080 Cl
ENDROOT
TORSDOF 0
ENDMDL
MODEL 4
REMARK VINA RESULT:      -5.0     12.874     13.600
REMARK  Name = min_compound951.pdb
REMARK  0 active torsions:
REMARK  status: ('A' for Active; 'I' for Inactive)
REMARK                            x       y       z     vdW  Elec       q    Type
REMARK                         _______ _______ _______ _____ _____    ______ ____
ROOT
ATOM      1 CL   UNL     1     -13.724  -0.379  -5.597  0.00  0.00    -0.080 Cl
ATOM      2  C   UNL     1     -14.953   0.851  -5.592  0.00  0.00    +0.081 A 
ATOM      3  C   UNL     1     -16.011   0.818  -6.522  0.00  0.00    +0.081 A 
ATOM      4  C   UNL     1     -17.005   1.818  -6.514  0.00  0.00    +0.088 A 
ATOM      5 CL   UNL     1     -18.333   1.859  -7.612  0.00  0.00    -0.080 Cl
ATOM      6  C   UNL     1     -16.894   2.827  -5.557  0.00  0.00    +0.107 A 
ATOM      7  N   UNL     1     -17.653   3.926  -5.264  0.00  0.00    -0.256 N 
ATOM      8  N   UNL     1     -17.144   4.620  -4.236  0.00  0.00    -0.067 NA
ATOM      9  N   UNL     1     -16.046   3.992  -3.836  0.00  0.00    -0.128 NA
ATOM     10  H   UNL     1     -18.504   4.256  -5.707  0.00  0.00    +0.191 HD
ATOM     11  C   UNL     1     -15.864   2.887  -4.628  0.00  0.00    +0.134 A 
ATOM     12 CL   UNL     1     -16.107  -0.461  -7.699  0.00  0.00    -0.080 Cl
ATOM     13  C   UNL     1     -14.883   1.887  -4.647  0.00  0.00    +0.090 A 
ATOM     14 CL   UNL     1     -13.662   2.059  -3.458  0.00  0.00    -0.080 Cl
ENDROOT
TORSDOF 0
ENDMDL
MODEL 5
REMARK VINA RESULT:      -5.0      2.508      3.657
REMARK  Name = min_compound951.pdb
REMARK  0 active torsions:
REMARK  status: ('A' for Active; 'I' for Inactive)
REMARK                            x       y       z     vdW  Elec       q    Type
REMARK                         _______ _______ _______ _____ _____    ______ ____
ROOT
ATOM      1 CL   UNL     1     -14.831   1.808 -15.817  0.00  0.00    -0.080 Cl
ATOM      2  C   UNL     1     -13.166   1.697 -16.303  0.00  0.00    +0.081 A 
ATOM      3  C   UNL     1     -12.421   2.856 -16.597  0.00  0.00    +0.081 A 
ATOM      4  C   UNL     1     -11.071   2.761 -16.991  0.00  0.00    +0.088 A 
ATOM      5 CL   UNL     1     -10.084   4.123 -17.370  0.00  0.00    -0.080 Cl
ATOM      6  C   UNL     1     -10.514   1.485 -17.075  0.00  0.00    +0.107 A 
ATOM      7  N   UNL     1      -9.271   1.026 -17.414  0.00  0.00    -0.256 N 
ATOM      8  N   UNL     1      -9.201  -0.310 -17.349  0.00  0.00    -0.067 NA
ATOM      9  N   UNL     1     -10.392  -0.754 -16.969  0.00  0.00    -0.128 NA
ATOM     10  H   UNL     1      -8.447   1.550 -17.691  0.00  0.00    +0.191 HD
ATOM     11  C   UNL     1     -11.221   0.324 -16.792  0.00  0.00    +0.134 A 
ATOM     12 CL   UNL     1     -13.159   4.428 -16.479  0.00  0.00    -0.080 Cl
ATOM     13  C   UNL     1     -12.562   0.433 -16.401  0.00  0.00    +0.090 A 
ATOM     14 CL   UNL     1     -13.338  -1.059 -16.077  0.00  0.00    -0.080 Cl
ENDROOT
TORSDOF 0
ENDMDL
MODEL 6
REMARK VINA RESULT:      -5.0      2.274      3.576
REMARK  Name = min_compound951.pdb
REMARK  0 active torsions:
REMARK  status: ('A' for Active; 'I' for Inactive)
REMARK                            x       y       z     vdW  Elec       q    Type
REMARK                         _______ _______ _______ _____ _____    ______ ____
ROOT
ATOM      1 CL   UNL     1      -9.772   4.654 -15.582  0.00  0.00    -0.080 Cl
ATOM      2  C   UNL     1     -10.917   3.828 -16.597  0.00  0.00    +0.081 A 
ATOM      3  C   UNL     1     -11.077   2.431 -16.517  0.00  0.00    +0.081 A 
ATOM      4  C   UNL     1     -12.007   1.766 -17.342  0.00  0.00    +0.088 A 
ATOM      5 CL   UNL     1     -12.270   0.063 -17.312  0.00  0.00    -0.080 Cl
ATOM      6  C   UNL     1     -12.750   2.544 -18.230  0.00  0.00    +0.107 A 
ATOM      7  N   UNL     1     -13.714   2.248 -19.154  0.00  0.00    -0.256 N 
ATOM      8  N   UNL     1     -14.149   3.346 -19.785  0.00  0.00    -0.067 NA
ATOM      9  N   UNL     1     -13.483   4.381 -19.291  0.00  0.00    -0.128 NA
ATOM     10  H   UNL     1     -14.112   1.347 -19.400  0.00  0.00    +0.191 HD
ATOM     11  C   UNL     1     -12.615   3.922 -18.333  0.00  0.00    +0.134 A 
ATOM     12 CL   UNL     1     -10.127   1.501 -15.393  0.00  0.00    -0.080 Cl
ATOM     13  C   UNL     1     -11.688   4.570 -17.507  0.00  0.00    +0.090 A 
ATOM     14 CL   UNL     1     -11.604   6.268 -17.717  0.00  0.00    -0.080 Cl
ENDROOT
TORSDOF 0
ENDMDL
MODEL 7
REMARK VINA RESULT:      -4.9     12.715     13.603
REMARK  Name = min_compound951.pdb
REMARK  0 active torsions:
REMARK  status: ('A' for Active; 'I' for Inactive)
REMARK                            x       y       z     vdW  Elec       q    Type
REMARK                         _______ _______ _______ _____ _____    ______ ____
ROOT
ATOM      1 CL   UNL     1     -16.727   1.728  -8.925  0.00  0.00    -0.080 Cl
ATOM      2  C   UNL     1     -16.828   0.682  -7.540  0.00  0.00    +0.081 A 
ATOM      3  C   UNL     1     -15.683   0.384  -6.776  0.00  0.00    +0.081 A 
ATOM      4  C   UNL     1     -15.770  -0.465  -5.654  0.00  0.00    +0.088 A 
ATOM      5 CL   UNL     1     -14.425  -0.885  -4.661  0.00  0.00    -0.080 Cl
ATOM      6  C   UNL     1     -17.024  -0.989  -5.339  0.00  0.00    +0.107 A 
ATOM      7  N   UNL     1     -17.471  -1.822  -4.351  0.00  0.00    -0.256 N 
ATOM      8  N   UNL     1     -18.787  -2.052  -4.453  0.00  0.00    -0.067 NA
ATOM      9  N   UNL     1     -19.229  -1.378  -5.506  0.00  0.00    -0.128 NA
ATOM     10  H   UNL     1     -16.951  -2.259  -3.596  0.00  0.00    +0.191 HD
ATOM     11  C   UNL     1     -18.171  -0.714  -6.073  0.00  0.00    +0.134 A 
ATOM     12 CL   UNL     1     -14.138   1.061  -7.206  0.00  0.00    -0.080 Cl
ATOM     13  C   UNL     1     -18.070   0.132  -7.186  0.00  0.00    +0.090 A 
ATOM     14 CL   UNL     1     -19.544   0.402  -8.016  0.00  0.00    -0.080 Cl
ENDROOT
TORSDOF 0
ENDMDL
MODEL 8
REMARK VINA RESULT:      -4.9      2.277      4.061
REMARK  Name = min_compound951.pdb
REMARK  0 active torsions:
REMARK  status: ('A' for Active; 'I' for Inactive)
REMARK                            x       y       z     vdW  Elec       q    Type
REMARK                         _______ _______ _______ _____ _____    ______ ____
ROOT
ATOM      1 CL   UNL     1     -10.078   1.663 -15.575  0.00  0.00    -0.080 Cl
ATOM      2  C   UNL     1     -11.066   2.587 -16.667  0.00  0.00    +0.081 A 
ATOM      3  C   UNL     1     -10.923   3.985 -16.763  0.00  0.00    +0.081 A 
ATOM      4  C   UNL     1     -11.727   4.730 -17.650  0.00  0.00    +0.088 A 
ATOM      5 CL   UNL     1     -11.622   6.440 -17.835  0.00  0.00    -0.080 Cl
ATOM      6  C   UNL     1     -12.658   4.029 -18.417  0.00  0.00    +0.107 A 
ATOM      7  N   UNL     1     -13.578   4.411 -19.354  0.00  0.00    -0.256 N 
ATOM      8  N   UNL     1     -14.264   3.364 -19.831  0.00  0.00    -0.067 NA
ATOM      9  N   UNL     1     -13.811   2.278 -19.220  0.00  0.00    -0.128 NA
ATOM     10  H   UNL     1     -13.787   5.340 -19.706  0.00  0.00    +0.191 HD
ATOM     11  C   UNL     1     -12.823   2.652 -18.345  0.00  0.00    +0.134 A 
ATOM     12 CL   UNL     1      -9.747   4.817 -15.786  0.00  0.00    -0.080 Cl
ATOM     13  C   UNL     1     -12.018   1.924 -17.459  0.00  0.00    +0.090 A 
ATOM     14 CL   UNL     1     -12.305   0.236 -17.451  0.00  0.00    -0.080 Cl
ENDROOT
TORSDOF 0
ENDMDL
MODEL 9
REMARK VINA RESULT:      -4.9     13.023     14.064
REMARK  Name = min_compound951.pdb
REMARK  0 active torsions:
REMARK  status: ('A' for Active; 'I' for Inactive)
REMARK                            x       y       z     vdW  Elec       q    Type
REMARK                         _______ _______ _______ _____ _____    ______ ____
ROOT
ATOM      1 CL   UNL     1     -16.135  -0.547  -7.648  0.00  0.00    -0.080 Cl
ATOM      2  C   UNL     1     -16.115   0.723  -6.461  0.00  0.00    +0.081 A 
ATOM      3  C   UNL     1     -15.027   0.869  -5.578  0.00  0.00    +0.081 A 
ATOM      4  C   UNL     1     -15.016   1.900  -4.617  0.00  0.00    +0.088 A 
ATOM      5 CL   UNL     1     -13.729   2.155  -3.498  0.00  0.00    -0.080 Cl
ATOM      6  C   UNL     1     -16.116   2.757  -4.580  0.00  0.00    +0.107 A 
ATOM      7  N   UNL     1     -16.437   3.837  -3.804  0.00  0.00    -0.256 N 
ATOM      8  N   UNL     1     -17.626   4.354  -4.142  0.00  0.00    -0.067 NA
ATOM      9  N   UNL     1     -18.107   3.629  -5.143  0.00  0.00    -0.128 NA
ATOM     10  H   UNL     1     -15.911   4.263  -3.048  0.00  0.00    +0.191 HD
ATOM     11  C   UNL     1     -17.203   2.640  -5.436  0.00  0.00    +0.134 A 
ATOM     12 CL   UNL     1     -13.676  -0.225  -5.661  0.00  0.00    -0.080 Cl
ATOM     13  C   UNL     1     -17.201   1.610  -6.387  0.00  0.00    +0.090 A 
ATOM     14 CL   UNL     1     -18.589   1.557  -7.389  0.00  0.00    -0.080 Cl
ENDROOT
TORSDOF 0
ENDMDL
