MODEL 1
REMARK VINA RESULT:      -5.6      0.000      0.000
REMARK  Name = min_compound96.pdb
REMARK  7 active torsions:
REMARK  status: ('A' for Active; 'I' for Inactive)
REMARK    1  A    between atoms: _2  and  _5
REMARK    2  A    between atoms: _3  and  _8
REMARK    3  A    between atoms: _5  and  _7
REMARK    4  A    between atoms: _10  and  _11
REMARK    5  A    between atoms: _11  and  _12
REMARK    6  A    between atoms: _12  and  _13
REMARK    7  A    between atoms: _12  and  _14
REMARK                            x       y       z     vdW  Elec       q    Type
REMARK                         _______ _______ _______ _____ _____    ______ ____
ROOT
ATOM      1  C   UNL     1     -12.585   1.334 -17.075  0.00  0.00    +0.237 C 
ATOM      2  N   UNL     1     -12.553   2.154 -15.978  0.00  0.00    -0.312 N 
ATOM      3  H   UNL     1     -12.303   1.781 -15.072  0.00  0.00    +0.149 HD
ATOM      4  O   UNL     1     -12.766   1.708 -18.227  0.00  0.00    -0.271 OA
ENDROOT
BRANCH   1   6
ATOM      5  C   UNL     1     -11.154  -0.577 -16.331  0.00  0.00    +0.096 C 
ATOM      6  C   UNL     1     -12.323  -0.083 -16.770  0.00  0.00    +0.074 C 
BRANCH   5   7
ATOM      7  C   UNL     1      -9.860   0.039 -15.970  0.00  0.00    +0.330 C 
ATOM      8  O   UNL     1      -8.860  -0.233 -16.623  0.00  0.00    -0.246 OA
BRANCH   7   9
ATOM      9  O   UNL     1      -9.827   0.899 -14.946  0.00  0.00    -0.478 OA
ATOM     10  H   UNL     1      -9.258   0.643 -14.182  0.00  0.00    +0.295 HD
ENDBRANCH   7   9
ENDBRANCH   5   7
ENDBRANCH   1   6
BRANCH   2  11
ATOM     11  C   UNL     1     -12.574   3.600 -16.132  0.00  0.00    +0.107 C 
BRANCH  11  12
ATOM     12  C   UNL     1     -11.280   4.176 -16.753  0.00  0.00    -0.000 C 
ATOM     13  C   UNL     1     -10.160   4.219 -15.757  0.00  0.00    +0.009 C 
ATOM     14  C   UNL     1     -11.551   5.531 -17.425  0.00  0.00    +0.009 C 
ENDBRANCH  11  12
ENDBRANCH   2  11
TORSDOF 5
ENDMDL
MODEL 2
REMARK VINA RESULT:      -5.0      2.182      4.922
REMARK  Name = min_compound96.pdb
REMARK  7 active torsions:
REMARK  status: ('A' for Active; 'I' for Inactive)
REMARK    1  A    between atoms: _2  and  _5
REMARK    2  A    between atoms: _3  and  _8
REMARK    3  A    between atoms: _5  and  _7
REMARK    4  A    between atoms: _10  and  _11
REMARK    5  A    between atoms: _11  and  _12
REMARK    6  A    between atoms: _12  and  _13
REMARK    7  A    between atoms: _12  and  _14
REMARK                            x       y       z     vdW  Elec       q    Type
REMARK                         _______ _______ _______ _____ _____    ______ ____
ROOT
ATOM      1  C   UNL     1     -10.896   2.982 -15.680  0.00  0.00    +0.237 C 
ATOM      2  N   UNL     1      -9.967   1.976 -15.694  0.00  0.00    -0.312 N 
ATOM      3  H   UNL     1      -8.993   2.186 -15.865  0.00  0.00    +0.149 HD
ATOM      4  O   UNL     1     -12.074   2.848 -15.374  0.00  0.00    -0.271 OA
ENDROOT
BRANCH   1   6
ATOM      5  C   UNL     1     -10.903   5.179 -16.875  0.00  0.00    +0.096 C 
ATOM      6  C   UNL     1     -10.348   4.307 -16.019  0.00  0.00    +0.074 C 
BRANCH   5   7
ATOM      7  C   UNL     1     -12.153   5.176 -17.663  0.00  0.00    +0.330 C 
ATOM      8  O   UNL     1     -12.094   5.215 -18.886  0.00  0.00    -0.246 OA
BRANCH   7   9
ATOM      9  O   UNL     1     -13.318   5.109 -17.011  0.00  0.00    -0.478 OA
ATOM     10  H   UNL     1     -14.131   5.170 -17.566  0.00  0.00    +0.295 HD
ENDBRANCH   7   9
ENDBRANCH   5   7
ENDBRANCH   1   6
BRANCH   2  11
ATOM     11  C   UNL     1     -10.294   0.657 -15.173  0.00  0.00    +0.107 C 
BRANCH  11  12
ATOM     12  C   UNL     1     -10.534  -0.401 -16.274  0.00  0.00    -0.000 C 
ATOM     13  C   UNL     1      -9.552  -0.263 -17.399  0.00  0.00    +0.009 C 
ATOM     14  C   UNL     1     -11.999  -0.386 -16.738  0.00  0.00    +0.009 C 
ENDBRANCH  11  12
ENDBRANCH   2  11
TORSDOF 5
ENDMDL
MODEL 3
REMARK VINA RESULT:      -4.9      1.833      3.880
REMARK  Name = min_compound96.pdb
REMARK  7 active torsions:
REMARK  status: ('A' for Active; 'I' for Inactive)
REMARK    1  A    between atoms: _2  and  _5
REMARK    2  A    between atoms: _3  and  _8
REMARK    3  A    between atoms: _5  and  _7
REMARK    4  A    between atoms: _10  and  _11
REMARK    5  A    between atoms: _11  and  _12
REMARK    6  A    between atoms: _12  and  _13
REMARK    7  A    between atoms: _12  and  _14
REMARK                            x       y       z     vdW  Elec       q    Type
REMARK                         _______ _______ _______ _____ _____    ______ ____
ROOT
ATOM      1  C   UNL     1     -13.356   2.090 -16.567  0.00  0.00    +0.237 C 
ATOM      2  N   UNL     1     -12.296   1.353 -17.026  0.00  0.00    -0.312 N 
ATOM      3  H   UNL     1     -11.475   1.818 -17.391  0.00  0.00    +0.149 HD
ATOM      4  O   UNL     1     -14.343   1.629 -16.007  0.00  0.00    -0.271 OA
ENDROOT
BRANCH   1   6
ATOM      5  C   UNL     1     -12.042   4.216 -16.647  0.00  0.00    +0.096 C 
ATOM      6  C   UNL     1     -13.199   3.543 -16.750  0.00  0.00    +0.074 C 
BRANCH   5   7
ATOM      7  C   UNL     1     -10.644   3.805 -16.403  0.00  0.00    +0.330 C 
ATOM      8  O   UNL     1      -9.999   3.294 -17.310  0.00  0.00    -0.246 OA
BRANCH   7   9
ATOM      9  O   UNL     1     -10.116   4.025 -15.194  0.00  0.00    -0.478 OA
ATOM     10  H   UNL     1      -9.177   3.747 -15.072  0.00  0.00    +0.295 HD
ENDBRANCH   7   9
ENDBRANCH   5   7
ENDBRANCH   1   6
BRANCH   2  11
ATOM     11  C   UNL     1     -12.193  -0.066 -16.726  0.00  0.00    +0.107 C 
BRANCH  11  12
ATOM     12  C   UNL     1     -10.763  -0.518 -16.351  0.00  0.00    -0.000 C 
ATOM     13  C   UNL     1     -10.129   0.415 -15.363  0.00  0.00    +0.009 C 
ATOM     14  C   UNL     1      -9.912  -0.743 -17.610  0.00  0.00    +0.009 C 
ENDBRANCH  11  12
ENDBRANCH   2  11
TORSDOF 5
ENDMDL
MODEL 4
REMARK VINA RESULT:      -4.9      1.890      2.719
REMARK  Name = min_compound96.pdb
REMARK  7 active torsions:
REMARK  status: ('A' for Active; 'I' for Inactive)
REMARK    1  A    between atoms: _2  and  _5
REMARK    2  A    between atoms: _3  and  _8
REMARK    3  A    between atoms: _5  and  _7
REMARK    4  A    between atoms: _10  and  _11
REMARK    5  A    between atoms: _11  and  _12
REMARK    6  A    between atoms: _12  and  _13
REMARK    7  A    between atoms: _12  and  _14
REMARK                            x       y       z     vdW  Elec       q    Type
REMARK                         _______ _______ _______ _____ _____    ______ ____
ROOT
ATOM      1  C   UNL     1     -12.120   2.070 -16.951  0.00  0.00    +0.237 C 
ATOM      2  N   UNL     1     -13.282   2.256 -16.250  0.00  0.00    -0.312 N 
ATOM      3  H   UNL     1     -13.894   1.472 -16.062  0.00  0.00    +0.149 HD
ATOM      4  O   UNL     1     -11.264   2.926 -17.133  0.00  0.00    -0.271 OA
ENDROOT
BRANCH   1   6
ATOM      5  C   UNL     1     -10.998  -0.165 -17.010  0.00  0.00    +0.096 C 
ATOM      6  C   UNL     1     -11.934   0.694 -17.445  0.00  0.00    +0.074 C 
BRANCH   5   7
ATOM      7  C   UNL     1      -9.964  -0.095 -15.957  0.00  0.00    +0.330 C 
ATOM      8  O   UNL     1      -9.172  -1.021 -15.829  0.00  0.00    -0.246 OA
BRANCH   7   9
ATOM      9  O   UNL     1      -9.912   0.995 -15.185  0.00  0.00    -0.478 OA
ATOM     10  H   UNL     1     -10.073   0.853 -14.222  0.00  0.00    +0.295 HD
ENDBRANCH   7   9
ENDBRANCH   5   7
ENDBRANCH   1   6
BRANCH   2  11
ATOM     11  C   UNL     1     -13.515   3.488 -15.512  0.00  0.00    +0.107 C 
BRANCH  11  12
ATOM     12  C   UNL     1     -14.978   3.664 -15.046  0.00  0.00    -0.000 C 
ATOM     13  C   UNL     1     -15.053   4.177 -13.639  0.00  0.00    +0.009 C 
ATOM     14  C   UNL     1     -15.783   2.373 -15.268  0.00  0.00    +0.009 C 
ENDBRANCH  11  12
ENDBRANCH   2  11
TORSDOF 5
ENDMDL
MODEL 5
REMARK VINA RESULT:      -4.9     14.270     14.974
REMARK  Name = min_compound96.pdb
REMARK  7 active torsions:
REMARK  status: ('A' for Active; 'I' for Inactive)
REMARK    1  A    between atoms: _2  and  _5
REMARK    2  A    between atoms: _3  and  _8
REMARK    3  A    between atoms: _5  and  _7
REMARK    4  A    between atoms: _10  and  _11
REMARK    5  A    between atoms: _11  and  _12
REMARK    6  A    between atoms: _12  and  _13
REMARK    7  A    between atoms: _12  and  _14
REMARK                            x       y       z     vdW  Elec       q    Type
REMARK                         _______ _______ _______ _____ _____    ______ ____
ROOT
ATOM      1  C   UNL     1     -14.473  -2.420  -2.228  0.00  0.00    +0.237 C 
ATOM      2  N   UNL     1     -14.465  -1.625  -3.343  0.00  0.00    -0.312 N 
ATOM      3  H   UNL     1     -14.474  -2.043  -4.265  0.00  0.00    +0.149 HD
ATOM      4  O   UNL     1     -14.574  -2.016  -1.077  0.00  0.00    -0.271 OA
ENDROOT
BRANCH   1   6
ATOM      5  C   UNL     1     -13.596  -4.740  -1.906  0.00  0.00    +0.096 C 
ATOM      6  C   UNL     1     -14.404  -3.862  -2.521  0.00  0.00    +0.074 C 
BRANCH   5   7
ATOM      7  C   UNL     1     -12.628  -4.627  -0.795  0.00  0.00    +0.330 C 
ATOM      8  O   UNL     1     -12.655  -5.447   0.113  0.00  0.00    -0.246 OA
BRANCH   7   9
ATOM      9  O   UNL     1     -11.732  -3.634  -0.828  0.00  0.00    -0.478 OA
ATOM     10  H   UNL     1     -12.092  -2.720  -0.738  0.00  0.00    +0.295 HD
ENDBRANCH   7   9
ENDBRANCH   5   7
ENDBRANCH   1   6
BRANCH   2  11
ATOM     11  C   UNL     1     -14.746  -0.202  -3.242  0.00  0.00    +0.107 C 
BRANCH  11  12
ATOM     12  C   UNL     1     -13.720   0.687  -3.983  0.00  0.00    -0.000 C 
ATOM     13  C   UNL     1     -13.829   2.123  -3.567  0.00  0.00    +0.009 C 
ATOM     14  C   UNL     1     -13.816   0.483  -5.503  0.00  0.00    +0.009 C 
ENDBRANCH  11  12
ENDBRANCH   2  11
TORSDOF 5
ENDMDL
MODEL 6
REMARK VINA RESULT:      -4.9      2.049      4.985
REMARK  Name = min_compound96.pdb
REMARK  7 active torsions:
REMARK  status: ('A' for Active; 'I' for Inactive)
REMARK    1  A    between atoms: _2  and  _5
REMARK    2  A    between atoms: _3  and  _8
REMARK    3  A    between atoms: _5  and  _7
REMARK    4  A    between atoms: _10  and  _11
REMARK    5  A    between atoms: _11  and  _12
REMARK    6  A    between atoms: _12  and  _13
REMARK    7  A    between atoms: _12  and  _14
REMARK                            x       y       z     vdW  Elec       q    Type
REMARK                         _______ _______ _______ _____ _____    ______ ____
ROOT
ATOM      1  C   UNL     1     -10.993   2.623 -16.209  0.00  0.00    +0.237 C 
ATOM      2  N   UNL     1     -11.007   1.877 -17.358  0.00  0.00    -0.312 N 
ATOM      3  H   UNL     1     -10.531   2.211 -18.185  0.00  0.00    +0.149 HD
ATOM      4  O   UNL     1     -11.442   2.259 -15.129  0.00  0.00    -0.271 OA
ENDROOT
BRANCH   1   6
ATOM      5  C   UNL     1     -10.845   5.003 -16.962  0.00  0.00    +0.096 C 
ATOM      6  C   UNL     1     -10.324   3.928 -16.350  0.00  0.00    +0.074 C 
BRANCH   5   7
ATOM      7  C   UNL     1     -12.151   5.280 -17.596  0.00  0.00    +0.330 C 
ATOM      8  O   UNL     1     -12.729   6.331 -17.350  0.00  0.00    -0.246 OA
BRANCH   7   9
ATOM      9  O   UNL     1     -12.654   4.375 -18.442  0.00  0.00    -0.478 OA
ATOM     10  H   UNL     1     -13.637   4.291 -18.455  0.00  0.00    +0.295 HD
ENDBRANCH   7   9
ENDBRANCH   5   7
ENDBRANCH   1   6
BRANCH   2  11
ATOM     11  C   UNL     1     -11.430   0.486 -17.335  0.00  0.00    +0.107 C 
BRANCH  11  12
ATOM     12  C   UNL     1     -10.271  -0.510 -17.099  0.00  0.00    -0.000 C 
ATOM     13  C   UNL     1     -10.203  -0.953 -15.669  0.00  0.00    +0.009 C 
ATOM     14  C   UNL     1      -8.944   0.061 -17.625  0.00  0.00    +0.009 C 
ENDBRANCH  11  12
ENDBRANCH   2  11
TORSDOF 5
ENDMDL
MODEL 7
REMARK VINA RESULT:      -4.9      2.058      3.023
REMARK  Name = min_compound96.pdb
REMARK  7 active torsions:
REMARK  status: ('A' for Active; 'I' for Inactive)
REMARK    1  A    between atoms: _2  and  _5
REMARK    2  A    between atoms: _3  and  _8
REMARK    3  A    between atoms: _5  and  _7
REMARK    4  A    between atoms: _10  and  _11
REMARK    5  A    between atoms: _11  and  _12
REMARK    6  A    between atoms: _12  and  _13
REMARK    7  A    between atoms: _12  and  _14
REMARK                            x       y       z     vdW  Elec       q    Type
REMARK                         _______ _______ _______ _____ _____    ______ ____
ROOT
ATOM      1  C   UNL     1     -12.010   3.445 -16.046  0.00  0.00    +0.237 C 
ATOM      2  N   UNL     1     -11.758   4.030 -17.258  0.00  0.00    -0.312 N 
ATOM      3  H   UNL     1     -10.977   3.717 -17.820  0.00  0.00    +0.149 HD
ATOM      4  O   UNL     1     -12.988   3.673 -15.345  0.00  0.00    -0.271 OA
ENDROOT
BRANCH   1   6
ATOM      5  C   UNL     1     -10.993   1.160 -16.060  0.00  0.00    +0.096 C 
ATOM      6  C   UNL     1     -11.011   2.437 -15.648  0.00  0.00    +0.074 C 
BRANCH   5   7
ATOM      7  C   UNL     1     -11.825   0.382 -17.001  0.00  0.00    +0.330 C 
ATOM      8  O   UNL     1     -12.419  -0.611 -16.601  0.00  0.00    -0.246 OA
BRANCH   7   9
ATOM      9  O   UNL     1     -11.921   0.804 -18.267  0.00  0.00    -0.478 OA
ATOM     10  H   UNL     1     -11.282   0.409 -18.906  0.00  0.00    +0.295 HD
ENDBRANCH   7   9
ENDBRANCH   5   7
ENDBRANCH   1   6
BRANCH   2  11
ATOM     11  C   UNL     1     -12.753   4.878 -17.895  0.00  0.00    +0.107 C 
BRANCH  11  12
ATOM     12  C   UNL     1     -12.574   6.382 -17.585  0.00  0.00    -0.000 C 
ATOM     13  C   UNL     1     -13.877   7.033 -17.229  0.00  0.00    +0.009 C 
ATOM     14  C   UNL     1     -11.830   7.091 -18.728  0.00  0.00    +0.009 C 
ENDBRANCH  11  12
ENDBRANCH   2  11
TORSDOF 5
ENDMDL
MODEL 8
REMARK VINA RESULT:      -4.8      1.581      2.161
REMARK  Name = min_compound96.pdb
REMARK  7 active torsions:
REMARK  status: ('A' for Active; 'I' for Inactive)
REMARK    1  A    between atoms: _2  and  _5
REMARK    2  A    between atoms: _3  and  _8
REMARK    3  A    between atoms: _5  and  _7
REMARK    4  A    between atoms: _10  and  _11
REMARK    5  A    between atoms: _11  and  _12
REMARK    6  A    between atoms: _12  and  _13
REMARK    7  A    between atoms: _12  and  _14
REMARK                            x       y       z     vdW  Elec       q    Type
REMARK                         _______ _______ _______ _____ _____    ______ ____
ROOT
ATOM      1  C   UNL     1     -11.898   2.673 -16.524  0.00  0.00    +0.237 C 
ATOM      2  N   UNL     1     -11.442   3.557 -17.466  0.00  0.00    -0.312 N 
ATOM      3  H   UNL     1     -11.285   3.250 -18.417  0.00  0.00    +0.149 HD
ATOM      4  O   UNL     1     -12.223   2.969 -15.382  0.00  0.00    -0.271 OA
ENDROOT
BRANCH   1   6
ATOM      5  C   UNL     1     -11.203   0.277 -16.705  0.00  0.00    +0.096 C 
ATOM      6  C   UNL     1     -12.027   1.290 -17.015  0.00  0.00    +0.074 C 
BRANCH   5   7
ATOM      7  C   UNL     1     -10.030   0.156 -15.815  0.00  0.00    +0.330 C 
ATOM      8  O   UNL     1      -9.190  -0.706 -16.039  0.00  0.00    -0.246 OA
BRANCH   7   9
ATOM      9  O   UNL     1      -9.911   1.015 -14.796  0.00  0.00    -0.478 OA
ATOM     10  H   UNL     1      -9.540   1.902 -15.016  0.00  0.00    +0.295 HD
ENDBRANCH   7   9
ENDBRANCH   5   7
ENDBRANCH   1   6
BRANCH   2  11
ATOM     11  C   UNL     1     -11.466   4.989 -17.213  0.00  0.00    +0.107 C 
BRANCH  11  12
ATOM     12  C   UNL     1     -12.459   5.761 -18.112  0.00  0.00    -0.000 C 
ATOM     13  C   UNL     1     -12.889   4.942 -19.291  0.00  0.00    +0.009 C 
ATOM     14  C   UNL     1     -11.892   7.136 -18.499  0.00  0.00    +0.009 C 
ENDBRANCH  11  12
ENDBRANCH   2  11
TORSDOF 5
ENDMDL
MODEL 9
REMARK VINA RESULT:      -4.8     11.627     12.389
REMARK  Name = min_compound96.pdb
REMARK  7 active torsions:
REMARK  status: ('A' for Active; 'I' for Inactive)
REMARK    1  A    between atoms: _2  and  _5
REMARK    2  A    between atoms: _3  and  _8
REMARK    3  A    between atoms: _5  and  _7
REMARK    4  A    between atoms: _10  and  _11
REMARK    5  A    between atoms: _11  and  _12
REMARK    6  A    between atoms: _12  and  _13
REMARK    7  A    between atoms: _12  and  _14
REMARK                            x       y       z     vdW  Elec       q    Type
REMARK                         _______ _______ _______ _____ _____    ______ ____
ROOT
ATOM      1  C   UNL     1     -15.316  -0.422  -6.944  0.00  0.00    +0.237 C 
ATOM      2  N   UNL     1     -14.740   0.760  -6.559  0.00  0.00    -0.312 N 
ATOM      3  H   UNL     1     -15.149   1.641  -6.842  0.00  0.00    +0.149 HD
ATOM      4  O   UNL     1     -14.965  -1.532  -6.565  0.00  0.00    -0.271 OA
ENDROOT
BRANCH   1   6
ATOM      5  C   UNL     1     -17.759  -0.393  -7.480  0.00  0.00    +0.096 C 
ATOM      6  C   UNL     1     -16.473  -0.258  -7.841  0.00  0.00    +0.074 C 
BRANCH   5   7
ATOM      7  C   UNL     1     -18.431  -0.661  -6.192  0.00  0.00    +0.330 C 
ATOM      8  O   UNL     1     -19.340   0.072  -5.823  0.00  0.00    -0.246 OA
BRANCH   7   9
ATOM      9  O   UNL     1     -18.035  -1.717  -5.473  0.00  0.00    -0.478 OA
ATOM     10  H   UNL     1     -17.599  -2.445  -5.976  0.00  0.00    +0.295 HD
ENDBRANCH   7   9
ENDBRANCH   5   7
ENDBRANCH   1   6
BRANCH   2  11
ATOM     11  C   UNL     1     -13.734   0.787  -5.509  0.00  0.00    +0.107 C 
BRANCH  11  12
ATOM     12  C   UNL     1     -14.287   1.223  -4.132  0.00  0.00    -0.000 C 
ATOM     13  C   UNL     1     -13.586   2.443  -3.615  0.00  0.00    +0.009 C 
ATOM     14  C   UNL     1     -14.278   0.048  -3.142  0.00  0.00    +0.009 C 
ENDBRANCH  11  12
ENDBRANCH   2  11
TORSDOF 5
ENDMDL
