MODEL 1
REMARK VINA RESULT:      -7.6      0.000      0.000
REMARK  Name = min_compound976.pdb
REMARK  3 active torsions:
REMARK  status: ('A' for Active; 'I' for Inactive)
REMARK    1  A    between atoms: _5  and  _18
REMARK    2  A    between atoms: _7  and  _19
REMARK    3  A    between atoms: _10  and  _15
REMARK                            x       y       z     vdW  Elec       q    Type
REMARK                         _______ _______ _______ _____ _____    ______ ____
ROOT
ATOM      1  N   UNL     1     -14.697   3.672 -16.401  0.00  0.00    -0.269 N 
ATOM      2  H   UNL     1     -15.125   4.316 -17.058  0.00  0.00    +0.156 HD
ATOM      3  C   UNL     1     -13.603   3.095 -16.979  0.00  0.00    +0.308 C 
ATOM      4  N   UNL     1     -13.048   2.020 -16.364  0.00  0.00    -0.266 N 
ATOM      5  H   UNL     1     -13.638   1.584 -15.674  0.00  0.00    +0.156 HD
ATOM      6  O   UNL     1     -13.228   3.562 -18.052  0.00  0.00    -0.252 OA
ENDROOT
BRANCH   1  12
ATOM      7 CL   UNL     1     -14.843   4.983 -11.403  0.00  0.00    -0.082 Cl
ATOM      8  C   UNL     1     -15.495   4.140 -12.764  0.00  0.00    +0.061 A 
ATOM      9  C   UNL     1     -16.639   3.341 -12.668  0.00  0.00    +0.059 A 
ATOM     10  C   UNL     1     -17.125   2.700 -13.806  0.00  0.00    +0.023 A 
ATOM     11  C   UNL     1     -16.455   2.837 -15.026  0.00  0.00    +0.025 A 
ATOM     12  C   UNL     1     -15.288   3.608 -15.128  0.00  0.00    +0.036 A 
ATOM     13 CL   UNL     1     -17.499   3.118 -11.188  0.00  0.00    -0.082 Cl
ATOM     14  C   UNL     1     -14.833   4.285 -13.995  0.00  0.00    +0.044 A 
ENDBRANCH   1  12
BRANCH   4  15
ATOM     15  C   UNL     1     -11.870   1.295 -16.681  0.00  0.00    +0.077 A 
ATOM     16  C   UNL     1     -10.618   1.807 -17.055  0.00  0.00    +0.138 A 
ATOM     17  C   UNL     1      -9.543   0.949 -17.319  0.00  0.00    +0.047 A 
ATOM     18  C   UNL     1      -9.690  -0.430 -17.211  0.00  0.00    +0.004 A 
ATOM     19  C   UNL     1     -10.919  -0.959 -16.838  0.00  0.00    +0.002 A 
ATOM     20  C   UNL     1     -11.996  -0.104 -16.580  0.00  0.00    +0.027 A 
BRANCH  16  21
ATOM     21  O   UNL     1     -10.307   3.126 -17.211  0.00  0.00    -0.505 OA
ATOM     22  H   UNL     1      -9.502   3.328 -16.690  0.00  0.00    +0.292 HD
ENDBRANCH  16  21
ENDBRANCH   4  15
TORSDOF 3
ENDMDL
MODEL 2
REMARK VINA RESULT:      -7.1      4.636      5.500
REMARK  Name = min_compound976.pdb
REMARK  3 active torsions:
REMARK  status: ('A' for Active; 'I' for Inactive)
REMARK    1  A    between atoms: _5  and  _18
REMARK    2  A    between atoms: _7  and  _19
REMARK    3  A    between atoms: _10  and  _15
REMARK                            x       y       z     vdW  Elec       q    Type
REMARK                         _______ _______ _______ _____ _____    ______ ____
ROOT
ATOM      1  N   UNL     1     -11.228   5.491 -16.921  0.00  0.00    -0.269 N 
ATOM      2  H   UNL     1     -10.742   6.182 -16.359  0.00  0.00    +0.156 HD
ATOM      3  C   UNL     1     -10.848   4.240 -16.528  0.00  0.00    +0.308 C 
ATOM      4  N   UNL     1     -11.183   3.191 -17.321  0.00  0.00    -0.266 N 
ATOM      5  H   UNL     1     -11.460   3.448 -18.255  0.00  0.00    +0.156 HD
ATOM      6  O   UNL     1     -10.176   4.158 -15.501  0.00  0.00    -0.252 OA
ENDROOT
BRANCH   1  12
ATOM      7 CL   UNL     1     -12.402   7.243 -21.640  0.00  0.00    -0.082 Cl
ATOM      8  C   UNL     1     -12.858   6.828 -20.024  0.00  0.00    +0.061 A 
ATOM      9  C   UNL     1     -14.168   6.979 -19.558  0.00  0.00    +0.059 A 
ATOM     10  C   UNL     1     -14.476   6.609 -18.250  0.00  0.00    +0.023 A 
ATOM     11  C   UNL     1     -13.475   6.117 -17.408  0.00  0.00    +0.025 A 
ATOM     12  C   UNL     1     -12.151   5.992 -17.853  0.00  0.00    +0.036 A 
ATOM     13 CL   UNL     1     -15.443   7.597 -20.543  0.00  0.00    -0.082 Cl
ATOM     14  C   UNL     1     -11.858   6.319 -19.179  0.00  0.00    +0.044 A 
ENDBRANCH   1  12
BRANCH   4  15
ATOM     15  C   UNL     1     -11.006   1.798 -17.116  0.00  0.00    +0.077 A 
ATOM     16  C   UNL     1     -11.956   0.867 -16.666  0.00  0.00    +0.138 A 
ATOM     17  C   UNL     1     -11.623  -0.487 -16.532  0.00  0.00    +0.047 A 
ATOM     18  C   UNL     1     -10.348  -0.941 -16.850  0.00  0.00    +0.004 A 
ATOM     19  C   UNL     1      -9.394  -0.038 -17.303  0.00  0.00    +0.002 A 
ATOM     20  C   UNL     1      -9.721   1.316 -17.429  0.00  0.00    +0.027 A 
BRANCH  16  21
ATOM     21  O   UNL     1     -13.243   1.145 -16.309  0.00  0.00    -0.505 OA
ATOM     22  H   UNL     1     -13.257   1.445 -15.376  0.00  0.00    +0.292 HD
ENDBRANCH  16  21
ENDBRANCH   4  15
TORSDOF 3
ENDMDL
MODEL 3
REMARK VINA RESULT:      -7.0      1.625      2.395
REMARK  Name = min_compound976.pdb
REMARK  3 active torsions:
REMARK  status: ('A' for Active; 'I' for Inactive)
REMARK    1  A    between atoms: _5  and  _18
REMARK    2  A    between atoms: _7  and  _19
REMARK    3  A    between atoms: _10  and  _15
REMARK                            x       y       z     vdW  Elec       q    Type
REMARK                         _______ _______ _______ _____ _____    ______ ____
ROOT
ATOM      1  N   UNL     1     -14.992   3.323 -17.307  0.00  0.00    -0.269 N 
ATOM      2  H   UNL     1     -15.532   3.585 -18.126  0.00  0.00    +0.156 HD
ATOM      3  C   UNL     1     -13.943   2.537 -17.689  0.00  0.00    +0.308 C 
ATOM      4  N   UNL     1     -13.258   1.873 -16.724  0.00  0.00    -0.266 N 
ATOM      5  H   UNL     1     -13.736   1.815 -15.840  0.00  0.00    +0.156 HD
ATOM      6  O   UNL     1     -13.726   2.445 -18.895  0.00  0.00    -0.252 OA
ENDROOT
BRANCH   1  12
ATOM      7 CL   UNL     1     -17.192   2.827 -12.656  0.00  0.00    -0.082 Cl
ATOM      8  C   UNL     1     -16.426   3.789 -13.872  0.00  0.00    +0.061 A 
ATOM      9  C   UNL     1     -16.206   5.161 -13.706  0.00  0.00    +0.059 A 
ATOM     10  C   UNL     1     -15.568   5.878 -14.717  0.00  0.00    +0.023 A 
ATOM     11  C   UNL     1     -15.178   5.233 -15.894  0.00  0.00    +0.025 A 
ATOM     12  C   UNL     1     -15.424   3.866 -16.085  0.00  0.00    +0.036 A 
ATOM     13 CL   UNL     1     -16.680   6.017 -12.285  0.00  0.00    -0.082 Cl
ATOM     14  C   UNL     1     -16.020   3.142 -15.050  0.00  0.00    +0.044 A 
ENDBRANCH   1  12
BRANCH   4  15
ATOM     15  C   UNL     1     -12.086   1.079 -16.820  0.00  0.00    +0.077 A 
ATOM     16  C   UNL     1     -11.962  -0.303 -16.601  0.00  0.00    +0.138 A 
ATOM     17  C   UNL     1     -10.727  -0.944 -16.755  0.00  0.00    +0.047 A 
ATOM     18  C   UNL     1      -9.597  -0.229 -17.137  0.00  0.00    +0.004 A 
ATOM     19  C   UNL     1      -9.697   1.137 -17.365  0.00  0.00    +0.002 A 
ATOM     20  C   UNL     1     -10.928   1.782 -17.203  0.00  0.00    +0.027 A 
BRANCH  16  21
ATOM     21  O   UNL     1     -12.965  -1.145 -16.219  0.00  0.00    -0.505 OA
ATOM     22  H   UNL     1     -13.087  -1.077 -15.250  0.00  0.00    +0.292 HD
ENDBRANCH  16  21
ENDBRANCH   4  15
TORSDOF 3
ENDMDL
MODEL 4
REMARK VINA RESULT:      -7.0      5.146      6.429
REMARK  Name = min_compound976.pdb
REMARK  3 active torsions:
REMARK  status: ('A' for Active; 'I' for Inactive)
REMARK    1  A    between atoms: _5  and  _18
REMARK    2  A    between atoms: _7  and  _19
REMARK    3  A    between atoms: _10  and  _15
REMARK                            x       y       z     vdW  Elec       q    Type
REMARK                         _______ _______ _______ _____ _____    ______ ____
ROOT
ATOM      1  N   UNL     1     -13.584   4.375 -18.551  0.00  0.00    -0.269 N 
ATOM      2  H   UNL     1     -14.558   4.592 -18.362  0.00  0.00    +0.156 HD
ATOM      3  C   UNL     1     -13.226   3.258 -17.852  0.00  0.00    +0.308 C 
ATOM      4  N   UNL     1     -11.906   2.957 -17.764  0.00  0.00    -0.266 N 
ATOM      5  H   UNL     1     -11.289   3.715 -18.004  0.00  0.00    +0.156 HD
ATOM      6  O   UNL     1     -14.128   2.630 -17.303  0.00  0.00    -0.252 OA
ENDROOT
BRANCH   1  12
ATOM      7 CL   UNL     1     -12.340   5.650 -23.403  0.00  0.00    -0.082 Cl
ATOM      8  C   UNL     1     -12.274   5.940 -21.699  0.00  0.00    +0.061 A 
ATOM      9  C   UNL     1     -11.564   7.013 -21.153  0.00  0.00    +0.059 A 
ATOM     10  C   UNL     1     -11.564   7.203 -19.772  0.00  0.00    +0.023 A 
ATOM     11  C   UNL     1     -12.248   6.309 -18.943  0.00  0.00    +0.025 A 
ATOM     12  C   UNL     1     -12.936   5.210 -19.476  0.00  0.00    +0.036 A 
ATOM     13 CL   UNL     1     -10.685   8.140 -22.121  0.00  0.00    -0.082 Cl
ATOM     14  C   UNL     1     -12.972   5.052 -20.864  0.00  0.00    +0.044 A 
ENDBRANCH   1  12
BRANCH   4  15
ATOM     15  C   UNL     1     -11.264   1.826 -17.196  0.00  0.00    +0.077 A 
ATOM     16  C   UNL     1     -10.602   1.742 -15.960  0.00  0.00    +0.138 A 
ATOM     17  C   UNL     1     -10.032   0.536 -15.534  0.00  0.00    +0.047 A 
ATOM     18  C   UNL     1     -10.115  -0.608 -16.321  0.00  0.00    +0.004 A 
ATOM     19  C   UNL     1     -10.770  -0.549 -17.544  0.00  0.00    +0.002 A 
ATOM     20  C   UNL     1     -11.333   0.656 -17.976  0.00  0.00    +0.027 A 
BRANCH  16  21
ATOM     21  O   UNL     1     -10.427   2.765 -15.075  0.00  0.00    -0.505 OA
ATOM     22  H   UNL     1     -10.439   2.404 -14.164  0.00  0.00    +0.292 HD
ENDBRANCH  16  21
ENDBRANCH   4  15
TORSDOF 3
ENDMDL
MODEL 5
REMARK VINA RESULT:      -6.9      6.340      8.497
REMARK  Name = min_compound976.pdb
REMARK  3 active torsions:
REMARK  status: ('A' for Active; 'I' for Inactive)
REMARK    1  A    between atoms: _5  and  _18
REMARK    2  A    between atoms: _7  and  _19
REMARK    3  A    between atoms: _10  and  _15
REMARK                            x       y       z     vdW  Elec       q    Type
REMARK                         _______ _______ _______ _____ _____    ______ ____
ROOT
ATOM      1  N   UNL     1     -16.845   4.022  -9.344  0.00  0.00    -0.269 N 
ATOM      2  H   UNL     1     -17.414   4.804  -9.035  0.00  0.00    +0.156 HD
ATOM      3  C   UNL     1     -16.725   3.121  -8.326  0.00  0.00    +0.308 C 
ATOM      4  N   UNL     1     -15.796   2.139  -8.448  0.00  0.00    -0.266 N 
ATOM      5  H   UNL     1     -15.105   2.307  -9.161  0.00  0.00    +0.156 HD
ATOM      6  O   UNL     1     -17.435   3.297  -7.338  0.00  0.00    -0.252 OA
ENDROOT
BRANCH   1  12
ATOM      7 CL   UNL     1     -17.320   2.610 -14.293  0.00  0.00    -0.082 Cl
ATOM      8  C   UNL     1     -16.516   3.495 -13.044  0.00  0.00    +0.061 A 
ATOM      9  C   UNL     1     -15.392   4.287 -13.297  0.00  0.00    +0.059 A 
ATOM     10  C   UNL     1     -14.799   4.990 -12.250  0.00  0.00    +0.023 A 
ATOM     11  C   UNL     1     -15.312   4.879 -10.954  0.00  0.00    +0.025 A 
ATOM     12  C   UNL     1     -16.418   4.061 -10.681  0.00  0.00    +0.036 A 
ATOM     13 CL   UNL     1     -14.701   4.451 -14.870  0.00  0.00    -0.082 Cl
ATOM     14  C   UNL     1     -17.036   3.397 -11.743  0.00  0.00    +0.044 A 
ENDBRANCH   1  12
BRANCH   4  15
ATOM     15  C   UNL     1     -15.524   1.030  -7.606  0.00  0.00    +0.077 A 
ATOM     16  C   UNL     1     -16.318  -0.110  -7.399  0.00  0.00    +0.138 A 
ATOM     17  C   UNL     1     -15.894  -1.131  -6.541  0.00  0.00    +0.047 A 
ATOM     18  C   UNL     1     -14.673  -1.045  -5.880  0.00  0.00    +0.004 A 
ATOM     19  C   UNL     1     -13.869   0.071  -6.074  0.00  0.00    +0.002 A 
ATOM     20  C   UNL     1     -14.294   1.097  -6.925  0.00  0.00    +0.027 A 
BRANCH  16  21
ATOM     21  O   UNL     1     -17.537  -0.349  -7.963  0.00  0.00    -0.505 OA
ATOM     22  H   UNL     1     -18.230  -0.248  -7.278  0.00  0.00    +0.292 HD
ENDBRANCH  16  21
ENDBRANCH   4  15
TORSDOF 3
ENDMDL
MODEL 6
REMARK VINA RESULT:      -6.9      3.460      6.958
REMARK  Name = min_compound976.pdb
REMARK  3 active torsions:
REMARK  status: ('A' for Active; 'I' for Inactive)
REMARK    1  A    between atoms: _5  and  _18
REMARK    2  A    between atoms: _7  and  _19
REMARK    3  A    between atoms: _10  and  _15
REMARK                            x       y       z     vdW  Elec       q    Type
REMARK                         _______ _______ _______ _____ _____    ______ ____
ROOT
ATOM      1  N   UNL     1     -13.741   4.503 -16.297  0.00  0.00    -0.269 N 
ATOM      2  H   UNL     1     -13.830   5.207 -17.022  0.00  0.00    +0.156 HD
ATOM      3  C   UNL     1     -14.671   4.735 -15.325  0.00  0.00    +0.308 C 
ATOM      4  N   UNL     1     -14.548   4.066 -14.150  0.00  0.00    -0.266 N 
ATOM      5  H   UNL     1     -13.644   3.650 -14.001  0.00  0.00    +0.156 HD
ATOM      6  O   UNL     1     -15.531   5.580 -15.566  0.00  0.00    -0.252 OA
ENDROOT
BRANCH   1  12
ATOM      7 CL   UNL     1     -12.335  -0.464 -16.565  0.00  0.00    -0.082 Cl
ATOM      8  C   UNL     1     -11.966   1.221 -16.691  0.00  0.00    +0.061 A 
ATOM      9  C   UNL     1     -10.685   1.681 -17.011  0.00  0.00    +0.059 A 
ATOM     10  C   UNL     1     -10.456   3.052 -17.115  0.00  0.00    +0.023 A 
ATOM     11  C   UNL     1     -11.495   3.955 -16.874  0.00  0.00    +0.025 A 
ATOM     12  C   UNL     1     -12.775   3.507 -16.519  0.00  0.00    +0.036 A 
ATOM     13 CL   UNL     1      -9.357   0.617 -17.302  0.00  0.00    -0.082 Cl
ATOM     14  C   UNL     1     -13.011   2.132 -16.463  0.00  0.00    +0.044 A 
ENDBRANCH   1  12
BRANCH   4  15
ATOM     15  C   UNL     1     -15.408   4.038 -13.022  0.00  0.00    +0.077 A 
ATOM     16  C   UNL     1     -16.625   3.351 -12.883  0.00  0.00    +0.138 A 
ATOM     17  C   UNL     1     -17.350   3.414 -11.687  0.00  0.00    +0.047 A 
ATOM     18  C   UNL     1     -16.877   4.151 -10.606  0.00  0.00    +0.004 A 
ATOM     19  C   UNL     1     -15.673   4.833 -10.719  0.00  0.00    +0.002 A 
ATOM     20  C   UNL     1     -14.951   4.779 -11.916  0.00  0.00    +0.027 A 
BRANCH  16  21
ATOM     21  O   UNL     1     -17.229   2.591 -13.842  0.00  0.00    -0.505 OA
ATOM     22  H   UNL     1     -17.380   1.691 -13.487  0.00  0.00    +0.292 HD
ENDBRANCH  16  21
ENDBRANCH   4  15
TORSDOF 3
ENDMDL
MODEL 7
REMARK VINA RESULT:      -6.8      3.512      6.826
REMARK  Name = min_compound976.pdb
REMARK  3 active torsions:
REMARK  status: ('A' for Active; 'I' for Inactive)
REMARK    1  A    between atoms: _5  and  _18
REMARK    2  A    between atoms: _7  and  _19
REMARK    3  A    between atoms: _10  and  _15
REMARK                            x       y       z     vdW  Elec       q    Type
REMARK                         _______ _______ _______ _____ _____    ______ ____
ROOT
ATOM      1  N   UNL     1     -13.344   4.431 -16.516  0.00  0.00    -0.269 N 
ATOM      2  H   UNL     1     -13.284   5.197 -17.179  0.00  0.00    +0.156 HD
ATOM      3  C   UNL     1     -14.381   4.656 -15.657  0.00  0.00    +0.308 C 
ATOM      4  N   UNL     1     -14.466   3.887 -14.542  0.00  0.00    -0.266 N 
ATOM      5  H   UNL     1     -13.621   3.389 -14.315  0.00  0.00    +0.156 HD
ATOM      6  O   UNL     1     -15.139   5.584 -15.930  0.00  0.00    -0.252 OA
ENDROOT
BRANCH   1  12
ATOM      7 CL   UNL     1     -12.171  -0.603 -16.575  0.00  0.00    -0.082 Cl
ATOM      8  C   UNL     1     -11.726   1.056 -16.777  0.00  0.00    +0.061 A 
ATOM      9  C   UNL     1     -10.427   1.442 -17.124  0.00  0.00    +0.059 A 
ATOM     10  C   UNL     1     -10.136   2.794 -17.289  0.00  0.00    +0.023 A 
ATOM     11  C   UNL     1     -11.130   3.755 -17.082  0.00  0.00    +0.025 A 
ATOM     12  C   UNL     1     -12.427   3.383 -16.700  0.00  0.00    +0.036 A 
ATOM     13 CL   UNL     1      -9.153   0.305 -17.376  0.00  0.00    -0.082 Cl
ATOM     14  C   UNL     1     -12.726   2.023 -16.583  0.00  0.00    +0.044 A 
ENDBRANCH   1  12
BRANCH   4  15
ATOM     15  C   UNL     1     -15.472   3.835 -13.544  0.00  0.00    +0.077 A 
ATOM     16  C   UNL     1     -15.480   4.477 -12.295  0.00  0.00    +0.138 A 
ATOM     17  C   UNL     1     -16.568   4.336 -11.425  0.00  0.00    +0.047 A 
ATOM     18  C   UNL     1     -17.669   3.565 -11.780  0.00  0.00    +0.004 A 
ATOM     19  C   UNL     1     -17.685   2.925 -13.013  0.00  0.00    +0.002 A 
ATOM     20  C   UNL     1     -16.596   3.057 -13.881  0.00  0.00    +0.027 A 
BRANCH  16  21
ATOM     21  O   UNL     1     -14.484   5.263 -11.793  0.00  0.00    -0.505 OA
ATOM     22  H   UNL     1     -14.862   5.866 -11.120  0.00  0.00    +0.292 HD
ENDBRANCH  16  21
ENDBRANCH   4  15
TORSDOF 3
ENDMDL
MODEL 8
REMARK VINA RESULT:      -6.5      2.559      3.207
REMARK  Name = min_compound976.pdb
REMARK  3 active torsions:
REMARK  status: ('A' for Active; 'I' for Inactive)
REMARK    1  A    between atoms: _5  and  _18
REMARK    2  A    between atoms: _7  and  _19
REMARK    3  A    between atoms: _10  and  _15
REMARK                            x       y       z     vdW  Elec       q    Type
REMARK                         _______ _______ _______ _____ _____    ______ ____
ROOT
ATOM      1  N   UNL     1     -14.399   3.270 -18.678  0.00  0.00    -0.269 N 
ATOM      2  H   UNL     1     -14.796   3.337 -19.610  0.00  0.00    +0.156 HD
ATOM      3  C   UNL     1     -13.425   2.314 -18.670  0.00  0.00    +0.308 C 
ATOM      4  N   UNL     1     -12.955   1.891 -17.469  0.00  0.00    -0.266 N 
ATOM      5  H   UNL     1     -13.539   2.132 -16.685  0.00  0.00    +0.156 HD
ATOM      6  O   UNL     1     -13.078   1.861 -19.759  0.00  0.00    -0.252 OA
ENDROOT
BRANCH   1  12
ATOM      7 CL   UNL     1     -14.499   7.959 -16.506  0.00  0.00    -0.082 Cl
ATOM      8  C   UNL     1     -15.065   6.329 -16.611  0.00  0.00    +0.061 A 
ATOM      9  C   UNL     1     -16.044   5.824 -15.748  0.00  0.00    +0.059 A 
ATOM     10  C   UNL     1     -16.471   4.505 -15.895  0.00  0.00    +0.023 A 
ATOM     11  C   UNL     1     -15.905   3.691 -16.880  0.00  0.00    +0.025 A 
ATOM     12  C   UNL     1     -14.899   4.176 -17.728  0.00  0.00    +0.036 A 
ATOM     13 CL   UNL     1     -16.768   6.772 -14.502  0.00  0.00    -0.082 Cl
ATOM     14  C   UNL     1     -14.509   5.511 -17.608  0.00  0.00    +0.044 A 
ENDBRANCH   1  12
BRANCH   4  15
ATOM     15  C   UNL     1     -11.896   0.996 -17.167  0.00  0.00    +0.077 A 
ATOM     16  C   UNL     1     -11.987  -0.294 -16.620  0.00  0.00    +0.138 A 
ATOM     17  C   UNL     1     -10.837  -1.060 -16.398  0.00  0.00    +0.047 A 
ATOM     18  C   UNL     1      -9.578  -0.565 -16.721  0.00  0.00    +0.004 A 
ATOM     19  C   UNL     1      -9.464   0.706 -17.268  0.00  0.00    +0.002 A 
ATOM     20  C   UNL     1     -10.611   1.478 -17.484  0.00  0.00    +0.027 A 
BRANCH  16  21
ATOM     21  O   UNL     1     -13.138  -0.924 -16.245  0.00  0.00    -0.505 OA
ATOM     22  H   UNL     1     -13.806  -0.815 -16.953  0.00  0.00    +0.292 HD
ENDBRANCH  16  21
ENDBRANCH   4  15
TORSDOF 3
ENDMDL
MODEL 9
REMARK VINA RESULT:      -6.3      6.989      9.179
REMARK  Name = min_compound976.pdb
REMARK  3 active torsions:
REMARK  status: ('A' for Active; 'I' for Inactive)
REMARK    1  A    between atoms: _5  and  _18
REMARK    2  A    between atoms: _7  and  _19
REMARK    3  A    between atoms: _10  and  _15
REMARK                            x       y       z     vdW  Elec       q    Type
REMARK                         _______ _______ _______ _____ _____    ______ ____
ROOT
ATOM      1  N   UNL     1     -17.656   3.472  -8.682  0.00  0.00    -0.269 N 
ATOM      2  H   UNL     1     -18.526   3.966  -8.511  0.00  0.00    +0.156 HD
ATOM      3  C   UNL     1     -17.369   2.677  -7.611  0.00  0.00    +0.308 C 
ATOM      4  N   UNL     1     -16.126   2.137  -7.530  0.00  0.00    -0.266 N 
ATOM      5  H   UNL     1     -15.445   2.572  -8.131  0.00  0.00    +0.156 HD
ATOM      6  O   UNL     1     -18.247   2.548  -6.760  0.00  0.00    -0.252 OA
ENDROOT
BRANCH   1  12
ATOM      7 CL   UNL     1     -17.412   2.687 -13.785  0.00  0.00    -0.082 Cl
ATOM      8  C   UNL     1     -16.820   3.428 -12.340  0.00  0.00    +0.061 A 
ATOM      9  C   UNL     1     -15.709   4.278 -12.339  0.00  0.00    +0.059 A 
ATOM     10  C   UNL     1     -15.292   4.859 -11.143  0.00  0.00    +0.023 A 
ATOM     11  C   UNL     1     -15.965   4.570  -9.953  0.00  0.00    +0.025 A 
ATOM     12  C   UNL     1     -17.059   3.693  -9.934  0.00  0.00    +0.036 A 
ATOM     13 CL   UNL     1     -14.826   4.659 -13.772  0.00  0.00    -0.082 Cl
ATOM     14  C   UNL     1     -17.502   3.152 -11.143  0.00  0.00    +0.044 A 
ENDBRANCH   1  12
BRANCH   4  15
ATOM     15  C   UNL     1     -15.591   1.212  -6.597  0.00  0.00    +0.077 A 
ATOM     16  C   UNL     1     -15.381   1.400  -5.222  0.00  0.00    +0.138 A 
ATOM     17  C   UNL     1     -14.856   0.371  -4.431  0.00  0.00    +0.047 A 
ATOM     18  C   UNL     1     -14.539  -0.864  -4.987  0.00  0.00    +0.004 A 
ATOM     19  C   UNL     1     -14.745  -1.074  -6.344  0.00  0.00    +0.002 A 
ATOM     20  C   UNL     1     -15.261  -0.045  -7.139  0.00  0.00    +0.027 A 
BRANCH  16  21
ATOM     21  O   UNL     1     -15.632   2.545  -4.523  0.00  0.00    -0.505 OA
ATOM     22  H   UNL     1     -14.935   3.202  -4.727  0.00  0.00    +0.292 HD
ENDBRANCH  16  21
ENDBRANCH   4  15
TORSDOF 3
ENDMDL
