MODEL 1
REMARK VINA RESULT:      -6.4      0.000      0.000
REMARK  Name = min_compound927.pdb
REMARK  8 active torsions:
REMARK  status: ('A' for Active; 'I' for Inactive)
REMARK    1  A    between atoms: _1  and  _16
REMARK    2  A    between atoms: _2  and  _10
REMARK    3  A    between atoms: _9  and  _11
REMARK    4  A    between atoms: _10  and  _13
REMARK    5  A    between atoms: _11  and  _15
REMARK    6  A    between atoms: _12  and  _15
REMARK    7  A    between atoms: _12  and  _19
REMARK    8  A    between atoms: _12  and  _20
REMARK                            x       y       z     vdW  Elec       q    Type
REMARK                         _______ _______ _______ _____ _____    ______ ____
ROOT
ATOM      1  C   UNL     1     -16.477   4.805 -11.830  0.00  0.00    +0.280 A 
ATOM      2  C   UNL     1     -15.428   4.984 -12.745  0.00  0.00    +0.107 A 
ATOM      3  C   UNL     1     -15.246   4.079 -13.792  0.00  0.00    +0.037 A 
ATOM      4  N   UNL     1     -14.233   4.320 -14.731  0.00  0.00    -0.339 N 
ATOM      5  H   UNL     1     -13.431   4.792 -14.319  0.00  0.00    +0.146 HD
ATOM      6  C   UNL     1     -13.853   3.191 -15.594  0.00  0.00    +0.084 C 
ATOM      7  C   UNL     1     -15.119   2.567 -16.191  0.00  0.00    +0.028 C 
ATOM      8  C   UNL     1     -16.018   2.043 -15.077  0.00  0.00    +0.039 C 
ATOM      9  C   UNL     1     -16.175   3.038 -13.955  0.00  0.00    -0.026 A 
ATOM     10  C   UNL     1     -17.229   2.874 -13.035  0.00  0.00    +0.018 A 
ATOM     11  C   UNL     1     -17.403   3.756 -11.959  0.00  0.00    +0.055 A 
ENDROOT
BRANCH   1  12
ATOM     12  N   UNL     1     -16.548   5.738 -10.712  0.00  0.00    +0.080 N 
ATOM     13  O   UNL     1     -17.109   6.826 -10.910  0.00  0.00    +0.041 OA
ATOM     14  O   UNL     1     -15.981   5.409  -9.658  0.00  0.00    -0.576 OA
ENDBRANCH   1  12
BRANCH   6  15
ATOM     15  C   UNL     1     -12.894   3.702 -16.706  0.00  0.00    +0.103 C 
BRANCH  15  16
ATOM     16  N   UNL     1     -11.985   2.659 -17.207  0.00  0.00    -0.312 NA
ATOM     17  H   UNL     1     -11.895   2.734 -18.220  0.00  0.00    +0.122 HD
BRANCH  16  18
ATOM     18  C   UNL     1     -10.637   2.740 -16.615  0.00  0.00    +0.048 C 
ATOM     19  C   UNL     1     -10.465   1.552 -15.657  0.00  0.00    +0.023 C 
ATOM     20  C   UNL     1     -10.370   4.069 -15.973  0.00  0.00    +0.023 C 
ENDBRANCH  16  18
ENDBRANCH  15  16
ENDBRANCH   6  15
BRANCH  11  21
ATOM     21  C   UNL     1     -18.550   3.553 -11.011  0.00  0.00    +0.197 C 
BRANCH  21  22
ATOM     22  O   UNL     1     -18.060   2.961  -9.819  0.00  0.00    -0.390 OA
ATOM     23  H   UNL     1     -18.486   3.424  -9.076  0.00  0.00    +0.210 HD
ENDBRANCH  21  22
ENDBRANCH  11  21
TORSDOF 6
ENDMDL
MODEL 2
REMARK VINA RESULT:      -5.9      3.680      5.176
REMARK  Name = min_compound927.pdb
REMARK  8 active torsions:
REMARK  status: ('A' for Active; 'I' for Inactive)
REMARK    1  A    between atoms: _1  and  _16
REMARK    2  A    between atoms: _2  and  _10
REMARK    3  A    between atoms: _9  and  _11
REMARK    4  A    between atoms: _10  and  _13
REMARK    5  A    between atoms: _11  and  _15
REMARK    6  A    between atoms: _12  and  _15
REMARK    7  A    between atoms: _12  and  _19
REMARK    8  A    between atoms: _12  and  _20
REMARK                            x       y       z     vdW  Elec       q    Type
REMARK                         _______ _______ _______ _____ _____    ______ ____
ROOT
ATOM      1  C   UNL     1     -15.501   6.401 -16.135  0.00  0.00    +0.280 A 
ATOM      2  C   UNL     1     -14.874   5.177 -15.857  0.00  0.00    +0.107 A 
ATOM      3  C   UNL     1     -13.627   4.885 -16.412  0.00  0.00    +0.037 A 
ATOM      4  N   UNL     1     -12.992   3.683 -16.063  0.00  0.00    -0.339 N 
ATOM      5  H   UNL     1     -13.658   2.936 -15.880  0.00  0.00    +0.146 HD
ATOM      6  C   UNL     1     -11.872   3.258 -16.916  0.00  0.00    +0.084 C 
ATOM      7  C   UNL     1     -10.912   4.437 -17.109  0.00  0.00    +0.028 C 
ATOM      8  C   UNL     1     -11.632   5.591 -17.795  0.00  0.00    +0.039 C 
ATOM      9  C   UNL     1     -12.983   5.866 -17.184  0.00  0.00    -0.026 A 
ATOM     10  C   UNL     1     -13.619   7.094 -17.448  0.00  0.00    +0.018 A 
ATOM     11  C   UNL     1     -14.886   7.388 -16.925  0.00  0.00    +0.055 A 
ENDROOT
BRANCH   1  12
ATOM     12  N   UNL     1     -16.841   6.598 -15.595  0.00  0.00    +0.080 N 
ATOM     13  O   UNL     1     -16.951   7.305 -14.583  0.00  0.00    +0.041 OA
ATOM     14  O   UNL     1     -17.772   5.987 -16.143  0.00  0.00    -0.576 OA
ENDBRANCH   1  12
BRANCH   6  15
ATOM     15  C   UNL     1     -11.158   2.048 -16.252  0.00  0.00    +0.103 C 
BRANCH  15  16
ATOM     16  N   UNL     1     -10.397   1.231 -17.210  0.00  0.00    -0.312 NA
ATOM     17  H   UNL     1      -9.403   1.447 -17.138  0.00  0.00    +0.122 HD
BRANCH  16  18
ATOM     18  C   UNL     1     -10.574  -0.218 -16.997  0.00  0.00    +0.048 C 
ATOM     19  C   UNL     1     -12.038  -0.468 -16.608  0.00  0.00    +0.023 C 
ATOM     20  C   UNL     1      -9.589  -0.779 -16.015  0.00  0.00    +0.023 C 
ENDBRANCH  16  18
ENDBRANCH  15  16
ENDBRANCH   6  15
BRANCH  11  21
ATOM     21  C   UNL     1     -15.522   8.717 -17.220  0.00  0.00    +0.197 C 
BRANCH  21  22
ATOM     22  O   UNL     1     -15.342   9.569 -16.100  0.00  0.00    -0.390 OA
ATOM     23  H   UNL     1     -15.661   9.083 -15.320  0.00  0.00    +0.210 HD
ENDBRANCH  21  22
ENDBRANCH  11  21
TORSDOF 6
ENDMDL
MODEL 3
REMARK VINA RESULT:      -5.9      3.294      4.613
REMARK  Name = min_compound927.pdb
REMARK  8 active torsions:
REMARK  status: ('A' for Active; 'I' for Inactive)
REMARK    1  A    between atoms: _1  and  _16
REMARK    2  A    between atoms: _2  and  _10
REMARK    3  A    between atoms: _9  and  _11
REMARK    4  A    between atoms: _10  and  _13
REMARK    5  A    between atoms: _11  and  _15
REMARK    6  A    between atoms: _12  and  _15
REMARK    7  A    between atoms: _12  and  _19
REMARK    8  A    between atoms: _12  and  _20
REMARK                            x       y       z     vdW  Elec       q    Type
REMARK                         _______ _______ _______ _____ _____    ______ ____
ROOT
ATOM      1  C   UNL     1     -16.266   7.386 -14.993  0.00  0.00    +0.280 A 
ATOM      2  C   UNL     1     -15.755   6.114 -15.290  0.00  0.00    +0.107 A 
ATOM      3  C   UNL     1     -14.800   5.958 -16.297  0.00  0.00    +0.037 A 
ATOM      4  N   UNL     1     -14.256   4.686 -16.527  0.00  0.00    -0.339 N 
ATOM      5  H   UNL     1     -14.923   3.942 -16.335  0.00  0.00    +0.146 HD
ATOM      6  C   UNL     1     -13.534   4.498 -17.794  0.00  0.00    +0.084 C 
ATOM      7  C   UNL     1     -12.535   5.645 -17.979  0.00  0.00    +0.028 C 
ATOM      8  C   UNL     1     -13.274   6.977 -18.036  0.00  0.00    +0.039 C 
ATOM      9  C   UNL     1     -14.310   7.102 -16.948  0.00  0.00    -0.026 A 
ATOM     10  C   UNL     1     -14.825   8.375 -16.634  0.00  0.00    +0.018 A 
ATOM     11  C   UNL     1     -15.809   8.542 -15.648  0.00  0.00    +0.055 A 
ENDROOT
BRANCH   1  12
ATOM     12  N   UNL     1     -17.325   7.459 -13.993  0.00  0.00    +0.080 N 
ATOM     13  O   UNL     1     -18.482   7.222 -14.368  0.00  0.00    +0.041 OA
ATOM     14  O   UNL     1     -17.006   7.821 -12.850  0.00  0.00    -0.576 OA
ENDBRANCH   1  12
BRANCH   6  15
ATOM     15  C   UNL     1     -12.816   3.119 -17.769  0.00  0.00    +0.103 C 
BRANCH  15  16
ATOM     16  N   UNL     1     -11.378   3.224 -17.471  0.00  0.00    -0.312 NA
ATOM     17  H   UNL     1     -11.037   4.151 -17.725  0.00  0.00    +0.122 HD
BRANCH  16  18
ATOM     18  C   UNL     1     -11.069   2.989 -16.049  0.00  0.00    +0.048 C 
ATOM     19  C   UNL     1     -10.163   4.130 -15.562  0.00  0.00    +0.023 C 
ATOM     20  C   UNL     1     -10.496   1.625 -15.803  0.00  0.00    +0.023 C 
ENDBRANCH  16  18
ENDBRANCH  15  16
ENDBRANCH   6  15
BRANCH  11  21
ATOM     21  C   UNL     1     -16.319   9.920 -15.335  0.00  0.00    +0.197 C 
BRANCH  21  22
ATOM     22  O   UNL     1     -15.728  10.364 -14.125  0.00  0.00    -0.390 OA
ATOM     23  H   UNL     1     -16.289  10.040 -13.399  0.00  0.00    +0.210 HD
ENDBRANCH  21  22
ENDBRANCH  11  21
TORSDOF 6
ENDMDL
MODEL 4
REMARK VINA RESULT:      -5.8      4.530      5.811
REMARK  Name = min_compound927.pdb
REMARK  8 active torsions:
REMARK  status: ('A' for Active; 'I' for Inactive)
REMARK    1  A    between atoms: _1  and  _16
REMARK    2  A    between atoms: _2  and  _10
REMARK    3  A    between atoms: _9  and  _11
REMARK    4  A    between atoms: _10  and  _13
REMARK    5  A    between atoms: _11  and  _15
REMARK    6  A    between atoms: _12  and  _15
REMARK    7  A    between atoms: _12  and  _19
REMARK    8  A    between atoms: _12  and  _20
REMARK                            x       y       z     vdW  Elec       q    Type
REMARK                         _______ _______ _______ _____ _____    ______ ____
ROOT
ATOM      1  C   UNL     1     -15.851   9.005 -15.953  0.00  0.00    +0.280 A 
ATOM      2  C   UNL     1     -14.995   7.901 -15.821  0.00  0.00    +0.107 A 
ATOM      3  C   UNL     1     -14.551   7.217 -16.954  0.00  0.00    +0.037 A 
ATOM      4  N   UNL     1     -13.641   6.161 -16.798  0.00  0.00    -0.339 N 
ATOM      5  H   UNL     1     -13.777   5.664 -15.920  0.00  0.00    +0.146 HD
ATOM      6  C   UNL     1     -13.473   5.261 -17.948  0.00  0.00    +0.084 C 
ATOM      7  C   UNL     1     -13.244   6.098 -19.212  0.00  0.00    +0.028 C 
ATOM      8  C   UNL     1     -14.449   6.993 -19.470  0.00  0.00    +0.039 C 
ATOM      9  C   UNL     1     -14.914   7.700 -18.222  0.00  0.00    -0.026 A 
ATOM     10  C   UNL     1     -15.767   8.814 -18.341  0.00  0.00    +0.018 A 
ATOM     11  C   UNL     1     -16.248   9.490 -17.211  0.00  0.00    +0.055 A 
ENDROOT
BRANCH   1  12
ATOM     12  N   UNL     1     -16.346   9.612 -14.723  0.00  0.00    +0.080 N 
ATOM     13  O   UNL     1     -16.033  10.790 -14.502  0.00  0.00    +0.041 OA
ATOM     14  O   UNL     1     -16.987   8.886 -13.947  0.00  0.00    -0.576 OA
ENDBRANCH   1  12
BRANCH   6  15
ATOM     15  C   UNL     1     -12.276   4.306 -17.676  0.00  0.00    +0.103 C 
BRANCH  15  16
ATOM     16  N   UNL     1     -12.516   3.388 -16.551  0.00  0.00    -0.312 NA
ATOM     17  H   UNL     1     -12.743   2.459 -16.903  0.00  0.00    +0.122 HD
BRANCH  16  18
ATOM     18  C   UNL     1     -11.356   3.271 -15.648  0.00  0.00    +0.048 C 
ATOM     19  C   UNL     1     -10.301   4.297 -16.089  0.00  0.00    +0.023 C 
ATOM     20  C   UNL     1     -10.828   1.869 -15.569  0.00  0.00    +0.023 C 
ENDBRANCH  16  18
ENDBRANCH  15  16
ENDBRANCH   6  15
BRANCH  11  21
ATOM     21  C   UNL     1     -17.144  10.684 -17.384  0.00  0.00    +0.197 C 
BRANCH  21  22
ATOM     22  O   UNL     1     -16.344  11.854 -17.434  0.00  0.00    -0.390 OA
ATOM     23  H   UNL     1     -16.727  12.430 -18.119  0.00  0.00    +0.210 HD
ENDBRANCH  21  22
ENDBRANCH  11  21
TORSDOF 6
ENDMDL
MODEL 5
REMARK VINA RESULT:      -5.8      1.438      2.232
REMARK  Name = min_compound927.pdb
REMARK  8 active torsions:
REMARK  status: ('A' for Active; 'I' for Inactive)
REMARK    1  A    between atoms: _1  and  _16
REMARK    2  A    between atoms: _2  and  _10
REMARK    3  A    between atoms: _9  and  _11
REMARK    4  A    between atoms: _10  and  _13
REMARK    5  A    between atoms: _11  and  _15
REMARK    6  A    between atoms: _12  and  _15
REMARK    7  A    between atoms: _12  and  _19
REMARK    8  A    between atoms: _12  and  _20
REMARK                            x       y       z     vdW  Elec       q    Type
REMARK                         _______ _______ _______ _____ _____    ______ ____
ROOT
ATOM      1  C   UNL     1     -16.446   4.825 -11.810  0.00  0.00    +0.280 A 
ATOM      2  C   UNL     1     -15.427   5.037 -12.750  0.00  0.00    +0.107 A 
ATOM      3  C   UNL     1     -15.248   4.143 -13.807  0.00  0.00    +0.037 A 
ATOM      4  N   UNL     1     -14.266   4.416 -14.770  0.00  0.00    -0.339 N 
ATOM      5  H   UNL     1     -13.467   4.908 -14.376  0.00  0.00    +0.146 HD
ATOM      6  C   UNL     1     -13.879   3.303 -15.650  0.00  0.00    +0.084 C 
ATOM      7  C   UNL     1     -15.143   2.649 -16.218  0.00  0.00    +0.028 C 
ATOM      8  C   UNL     1     -15.999   2.095 -15.085  0.00  0.00    +0.039 C 
ATOM      9  C   UNL     1     -16.153   3.079 -13.953  0.00  0.00    -0.026 A 
ATOM     10  C   UNL     1     -17.178   2.881 -13.007  0.00  0.00    +0.018 A 
ATOM     11  C   UNL     1     -17.347   3.753 -11.921  0.00  0.00    +0.055 A 
ENDROOT
BRANCH   1  12
ATOM     12  N   UNL     1     -16.513   5.749 -10.684  0.00  0.00    +0.080 N 
ATOM     13  O   UNL     1     -16.005   5.384  -9.614  0.00  0.00    +0.041 OA
ATOM     14  O   UNL     1     -17.137   6.809 -10.852  0.00  0.00    -0.576 OA
ENDBRANCH   1  12
BRANCH   6  15
ATOM     15  C   UNL     1     -12.964   3.846 -16.784  0.00  0.00    +0.103 C 
BRANCH  15  16
ATOM     16  N   UNL     1     -13.612   4.885 -17.600  0.00  0.00    -0.312 NA
ATOM     17  H   UNL     1     -14.586   4.993 -17.316  0.00  0.00    +0.122 HD
BRANCH  16  18
ATOM     18  C   UNL     1     -12.949   6.197 -17.492  0.00  0.00    +0.048 C 
ATOM     19  C   UNL     1     -14.023   7.252 -17.186  0.00  0.00    +0.023 C 
ATOM     20  C   UNL     1     -12.119   6.523 -18.699  0.00  0.00    +0.023 C 
ENDBRANCH  16  18
ENDBRANCH  15  16
ENDBRANCH   6  15
BRANCH  11  21
ATOM     21  C   UNL     1     -18.464   3.513 -10.945  0.00  0.00    +0.197 C 
BRANCH  21  22
ATOM     22  O   UNL     1     -17.934   2.884  -9.789  0.00  0.00    -0.390 OA
ATOM     23  H   UNL     1     -17.975   1.924  -9.946  0.00  0.00    +0.210 HD
ENDBRANCH  21  22
ENDBRANCH  11  21
TORSDOF 6
ENDMDL
MODEL 6
REMARK VINA RESULT:      -5.7      3.919      6.657
REMARK  Name = min_compound927.pdb
REMARK  8 active torsions:
REMARK  status: ('A' for Active; 'I' for Inactive)
REMARK    1  A    between atoms: _1  and  _16
REMARK    2  A    between atoms: _2  and  _10
REMARK    3  A    between atoms: _9  and  _11
REMARK    4  A    between atoms: _10  and  _13
REMARK    5  A    between atoms: _11  and  _15
REMARK    6  A    between atoms: _12  and  _15
REMARK    7  A    between atoms: _12  and  _19
REMARK    8  A    between atoms: _12  and  _20
REMARK                            x       y       z     vdW  Elec       q    Type
REMARK                         _______ _______ _______ _____ _____    ______ ____
ROOT
ATOM      1  C   UNL     1     -12.626   3.216 -16.072  0.00  0.00    +0.280 A 
ATOM      2  C   UNL     1     -13.389   4.175 -15.387  0.00  0.00    +0.107 A 
ATOM      3  C   UNL     1     -14.718   3.908 -15.054  0.00  0.00    +0.037 A 
ATOM      4  N   UNL     1     -15.435   4.856 -14.309  0.00  0.00    -0.339 N 
ATOM      5  H   UNL     1     -15.140   5.809 -14.513  0.00  0.00    +0.146 HD
ATOM      6  C   UNL     1     -16.897   4.701 -14.281  0.00  0.00    +0.084 C 
ATOM      7  C   UNL     1     -17.242   3.248 -13.936  0.00  0.00    +0.028 C 
ATOM      8  C   UNL     1     -16.677   2.311 -14.997  0.00  0.00    +0.039 C 
ATOM      9  C   UNL     1     -15.248   2.641 -15.347  0.00  0.00    -0.026 A 
ATOM     10  C   UNL     1     -14.470   1.684 -16.027  0.00  0.00    +0.018 A 
ATOM     11  C   UNL     1     -13.144   1.951 -16.398  0.00  0.00    +0.055 A 
ENDROOT
BRANCH   1  12
ATOM     12  N   UNL     1     -11.276   3.600 -16.466  0.00  0.00    +0.080 N 
ATOM     13  O   UNL     1     -10.393   3.554 -15.598  0.00  0.00    +0.041 OA
ATOM     14  O   UNL     1     -11.117   4.015 -17.625  0.00  0.00    -0.576 OA
ENDBRANCH   1  12
BRANCH   6  15
ATOM     15  C   UNL     1     -17.492   5.688 -13.237  0.00  0.00    +0.103 C 
BRANCH  15  16
ATOM     16  N   UNL     1     -16.525   6.081 -12.199  0.00  0.00    -0.312 NA
ATOM     17  H   UNL     1     -16.633   7.071 -11.981  0.00  0.00    +0.122 HD
BRANCH  16  18
ATOM     18  C   UNL     1     -16.678   5.311 -10.951  0.00  0.00    +0.048 C 
ATOM     19  C   UNL     1     -16.971   6.299  -9.813  0.00  0.00    +0.023 C 
ATOM     20  C   UNL     1     -15.504   4.417 -10.680  0.00  0.00    +0.023 C 
ENDBRANCH  16  18
ENDBRANCH  15  16
ENDBRANCH   6  15
BRANCH  11  21
ATOM     21  C   UNL     1     -12.345   0.896 -17.108  0.00  0.00    +0.197 C 
BRANCH  21  22
ATOM     22  O   UNL     1     -12.346   1.179 -18.498  0.00  0.00    -0.390 OA
ATOM     23  H   UNL     1     -12.946   0.538 -18.918  0.00  0.00    +0.210 HD
ENDBRANCH  21  22
ENDBRANCH  11  21
TORSDOF 6
ENDMDL
MODEL 7
REMARK VINA RESULT:      -5.7      6.274      7.572
REMARK  Name = min_compound927.pdb
REMARK  8 active torsions:
REMARK  status: ('A' for Active; 'I' for Inactive)
REMARK    1  A    between atoms: _1  and  _16
REMARK    2  A    between atoms: _2  and  _10
REMARK    3  A    between atoms: _9  and  _11
REMARK    4  A    between atoms: _10  and  _13
REMARK    5  A    between atoms: _11  and  _15
REMARK    6  A    between atoms: _12  and  _15
REMARK    7  A    between atoms: _12  and  _19
REMARK    8  A    between atoms: _12  and  _20
REMARK                            x       y       z     vdW  Elec       q    Type
REMARK                         _______ _______ _______ _____ _____    ______ ____
ROOT
ATOM      1  C   UNL     1     -11.629   1.347 -17.145  0.00  0.00    +0.280 A 
ATOM      2  C   UNL     1     -12.211   2.086 -18.186  0.00  0.00    +0.107 A 
ATOM      3  C   UNL     1     -12.217   3.481 -18.140  0.00  0.00    +0.037 A 
ATOM      4  N   UNL     1     -12.745   4.195 -19.226  0.00  0.00    -0.339 N 
ATOM      5  H   UNL     1     -13.505   3.695 -19.681  0.00  0.00    +0.146 HD
ATOM      6  C   UNL     1     -13.048   5.616 -18.995  0.00  0.00    +0.084 C 
ATOM      7  C   UNL     1     -11.837   6.287 -18.338  0.00  0.00    +0.028 C 
ATOM      8  C   UNL     1     -11.542   5.631 -16.994  0.00  0.00    +0.039 C 
ATOM      9  C   UNL     1     -11.564   4.126 -17.077  0.00  0.00    -0.026 A 
ATOM     10  C   UNL     1     -10.975   3.373 -16.042  0.00  0.00    +0.018 A 
ATOM     11  C   UNL     1     -10.991   1.971 -16.058  0.00  0.00    +0.055 A 
ENDROOT
BRANCH   1  12
ATOM     12  N   UNL     1     -11.741  -0.105 -17.217  0.00  0.00    +0.080 N 
ATOM     13  O   UNL     1     -12.663  -0.638 -16.584  0.00  0.00    +0.041 OA
ATOM     14  O   UNL     1     -10.865  -0.713 -17.850  0.00  0.00    -0.576 OA
ENDBRANCH   1  12
BRANCH   6  15
ATOM     15  C   UNL     1     -13.400   6.286 -20.353  0.00  0.00    +0.103 C 
BRANCH  15  16
ATOM     16  N   UNL     1     -12.765   5.625 -21.504  0.00  0.00    -0.312 NA
ATOM     17  H   UNL     1     -13.472   5.152 -22.066  0.00  0.00    +0.122 HD
BRANCH  16  18
ATOM     18  C   UNL     1     -12.033   6.565 -22.374  0.00  0.00    +0.048 C 
ATOM     19  C   UNL     1     -11.192   5.744 -23.362  0.00  0.00    +0.023 C 
ATOM     20  C   UNL     1     -11.233   7.565 -21.594  0.00  0.00    +0.023 C 
ENDBRANCH  16  18
ENDBRANCH  15  16
ENDBRANCH   6  15
BRANCH  11  21
ATOM     21  C   UNL     1     -10.338   1.208 -14.942  0.00  0.00    +0.197 C 
BRANCH  21  22
ATOM     22  O   UNL     1      -9.588   0.139 -15.495  0.00  0.00    -0.390 OA
ATOM     23  H   UNL     1      -9.988  -0.687 -15.170  0.00  0.00    +0.210 HD
ENDBRANCH  21  22
ENDBRANCH  11  21
TORSDOF 6
ENDMDL
MODEL 8
REMARK VINA RESULT:      -5.7      2.301      3.678
REMARK  Name = min_compound927.pdb
REMARK  8 active torsions:
REMARK  status: ('A' for Active; 'I' for Inactive)
REMARK    1  A    between atoms: _1  and  _16
REMARK    2  A    between atoms: _2  and  _10
REMARK    3  A    between atoms: _9  and  _11
REMARK    4  A    between atoms: _10  and  _13
REMARK    5  A    between atoms: _11  and  _15
REMARK    6  A    between atoms: _12  and  _15
REMARK    7  A    between atoms: _12  and  _19
REMARK    8  A    between atoms: _12  and  _20
REMARK                            x       y       z     vdW  Elec       q    Type
REMARK                         _______ _______ _______ _____ _____    ______ ____
ROOT
ATOM      1  C   UNL     1     -16.104   3.952 -14.350  0.00  0.00    +0.280 A 
ATOM      2  C   UNL     1     -15.381   2.892 -14.918  0.00  0.00    +0.107 A 
ATOM      3  C   UNL     1     -14.444   3.139 -15.924  0.00  0.00    +0.037 A 
ATOM      4  N   UNL     1     -13.687   2.070 -16.425  0.00  0.00    -0.339 N 
ATOM      5  H   UNL     1     -14.204   1.194 -16.412  0.00  0.00    +0.146 HD
ATOM      6  C   UNL     1     -12.981   2.302 -17.694  0.00  0.00    +0.084 C 
ATOM      7  C   UNL     1     -12.210   3.623 -17.606  0.00  0.00    +0.028 C 
ATOM      8  C   UNL     1     -13.177   4.778 -17.373  0.00  0.00    +0.039 C 
ATOM      9  C   UNL     1     -14.186   4.469 -16.296  0.00  0.00    -0.026 A 
ATOM     10  C   UNL     1     -14.912   5.525 -15.712  0.00  0.00    +0.018 A 
ATOM     11  C   UNL     1     -15.880   5.288 -14.726  0.00  0.00    +0.055 A 
ENDROOT
BRANCH   1  12
ATOM     12  N   UNL     1     -17.129   3.608 -13.372  0.00  0.00    +0.080 N 
ATOM     13  O   UNL     1     -16.797   3.593 -12.178  0.00  0.00    +0.041 OA
ATOM     14  O   UNL     1     -18.245   3.284 -13.806  0.00  0.00    -0.576 OA
ENDBRANCH   1  12
BRANCH   6  15
ATOM     15  C   UNL     1     -12.026   1.106 -17.969  0.00  0.00    +0.103 C 
BRANCH  15  16
ATOM     16  N   UNL     1     -12.100   0.060 -16.936  0.00  0.00    -0.312 NA
ATOM     17  H   UNL     1     -12.547  -0.774 -17.317  0.00  0.00    +0.122 HD
BRANCH  16  18
ATOM     18  C   UNL     1     -10.776  -0.322 -16.411  0.00  0.00    +0.048 C 
ATOM     19  C   UNL     1     -10.224   0.862 -15.603  0.00  0.00    +0.023 C 
ATOM     20  C   UNL     1      -9.846  -0.797 -17.487  0.00  0.00    +0.023 C 
ENDBRANCH  16  18
ENDBRANCH  15  16
ENDBRANCH   6  15
BRANCH  11  21
ATOM     21  C   UNL     1     -16.620   6.446 -14.119  0.00  0.00    +0.197 C 
BRANCH  21  22
ATOM     22  O   UNL     1     -15.780   7.079 -13.167  0.00  0.00    -0.390 OA
ATOM     23  H   UNL     1     -15.721   6.483 -12.400  0.00  0.00    +0.210 HD
ENDBRANCH  21  22
ENDBRANCH  11  21
TORSDOF 6
ENDMDL
MODEL 9
REMARK VINA RESULT:      -5.6      7.451     10.056
REMARK  Name = min_compound927.pdb
REMARK  8 active torsions:
REMARK  status: ('A' for Active; 'I' for Inactive)
REMARK    1  A    between atoms: _1  and  _16
REMARK    2  A    between atoms: _2  and  _10
REMARK    3  A    between atoms: _9  and  _11
REMARK    4  A    between atoms: _10  and  _13
REMARK    5  A    between atoms: _11  and  _15
REMARK    6  A    between atoms: _12  and  _15
REMARK    7  A    between atoms: _12  and  _19
REMARK    8  A    between atoms: _12  and  _20
REMARK                            x       y       z     vdW  Elec       q    Type
REMARK                         _______ _______ _______ _____ _____    ______ ____
ROOT
ATOM      1  C   UNL     1     -18.231   1.626  -7.658  0.00  0.00    +0.280 A 
ATOM      2  C   UNL     1     -17.904   0.862  -6.527  0.00  0.00    +0.107 A 
ATOM      3  C   UNL     1     -16.576   0.514  -6.274  0.00  0.00    +0.037 A 
ATOM      4  N   UNL     1     -16.270  -0.191  -5.101  0.00  0.00    -0.339 N 
ATOM      5  H   UNL     1     -17.024  -0.812  -4.818  0.00  0.00    +0.146 HD
ATOM      6  C   UNL     1     -14.947  -0.830  -5.044  0.00  0.00    +0.084 C 
ATOM      7  C   UNL     1     -13.878   0.189  -5.455  0.00  0.00    +0.028 C 
ATOM      8  C   UNL     1     -14.127   0.659  -6.884  0.00  0.00    +0.039 C 
ATOM      9  C   UNL     1     -15.574   1.006  -7.126  0.00  0.00    -0.026 A 
ATOM     10  C   UNL     1     -15.914   1.780  -8.253  0.00  0.00    +0.018 A 
ATOM     11  C   UNL     1     -17.247   2.108  -8.538  0.00  0.00    +0.055 A 
ENDROOT
BRANCH   1  12
ATOM     12  N   UNL     1     -19.647   1.873  -7.905  0.00  0.00    +0.080 N 
ATOM     13  O   UNL     1     -20.284   0.993  -8.502  0.00  0.00    +0.041 OA
ATOM     14  O   UNL     1     -20.101   2.976  -7.565  0.00  0.00    -0.576 OA
ENDBRANCH   1  12
BRANCH   6  15
ATOM     15  C   UNL     1     -14.700  -1.359  -3.603  0.00  0.00    +0.103 C 
BRANCH  15  16
ATOM     16  N   UNL     1     -14.665  -2.829  -3.527  0.00  0.00    -0.312 NA
ATOM     17  H   UNL     1     -13.791  -3.176  -3.922  0.00  0.00    +0.122 HD
BRANCH  16  18
ATOM     18  C   UNL     1     -14.784  -3.336  -2.147  0.00  0.00    +0.048 C 
ATOM     19  C   UNL     1     -15.046  -2.139  -1.220  0.00  0.00    +0.023 C 
ATOM     20  C   UNL     1     -13.603  -4.164  -1.735  0.00  0.00    +0.023 C 
ENDBRANCH  16  18
ENDBRANCH  15  16
ENDBRANCH   6  15
BRANCH  11  21
ATOM     21  C   UNL     1     -17.564   2.948  -9.743  0.00  0.00    +0.197 C 
BRANCH  21  22
ATOM     22  O   UNL     1     -17.837   4.274  -9.318  0.00  0.00    -0.390 OA
ATOM     23  H   UNL     1     -18.805   4.366  -9.282  0.00  0.00    +0.210 HD
ENDBRANCH  21  22
ENDBRANCH  11  21
TORSDOF 6
ENDMDL
