MODEL 1
REMARK VINA RESULT:      -7.2      0.000      0.000
REMARK  Name = min_compound926.pdb
REMARK  6 active torsions:
REMARK  status: ('A' for Active; 'I' for Inactive)
REMARK    1  A    between atoms: _6  and  _8
REMARK    2  A    between atoms: _9  and  _15
REMARK    3  A    between atoms: _10  and  _16
REMARK    4  A    between atoms: _12  and  _19
REMARK    5  A    between atoms: _16  and  _17
REMARK    6  A    between atoms: _16  and  _18
REMARK                            x       y       z     vdW  Elec       q    Type
REMARK                         _______ _______ _______ _____ _____    ______ ____
ROOT
ATOM      1  C   UNL     1     -12.322   2.105 -17.579  0.00  0.00    +0.244 C 
ATOM      2  N   UNL     1     -12.486   3.110 -16.644  0.00  0.00    -0.308 N 
ATOM      3  H   UNL     1     -11.781   3.209 -15.926  0.00  0.00    +0.149 HD
ATOM      4  O   UNL     1     -12.899   2.100 -18.662  0.00  0.00    -0.270 OA
ENDROOT
BRANCH   2   5
ATOM      5  C   UNL     1     -13.217   4.349 -17.067  0.00  0.00    +0.077 C 
ATOM      6  C   UNL     1     -11.994   5.328 -17.339  0.00  0.00    +0.026 C 
ATOM      7  C   UNL     1     -12.450   6.785 -17.702  0.00  0.00    -0.012 C 
ATOM      8  C   UNL     1     -11.873   7.183 -19.070  0.00  0.00    +0.007 C 
ATOM      9  C   UNL     1     -13.998   7.020 -17.735  0.00  0.00    +0.004 C 
ATOM     10  C   UNL     1     -15.069   6.123 -16.648  0.00  0.00    +0.006 C 
ATOM     11  C   UNL     1     -14.338   4.883 -16.225  0.00  0.00    +0.012 C 
BRANCH  11  12
ATOM     12  C   UNL     1     -14.728   4.177 -14.960  0.00  0.00    -0.012 C 
ATOM     13  C   UNL     1     -15.251   4.962 -13.794  0.00  0.00    +0.007 C 
ATOM     14  C   UNL     1     -15.662   2.957 -15.221  0.00  0.00    +0.007 C 
ENDBRANCH  11  12
ENDBRANCH   2   5
BRANCH   1  18
ATOM     15  N   UNL     1      -9.583  -1.028 -16.605  0.00  0.00    -0.263 NA
ATOM     16  C   UNL     1      -9.162   0.084 -17.244  0.00  0.00    +0.111 A 
ATOM     17  C   UNL     1      -9.993   1.135 -17.588  0.00  0.00    +0.033 A 
ATOM     18  C   UNL     1     -11.343   1.037 -17.252  0.00  0.00    +0.040 A 
ATOM     19  C   UNL     1     -11.802  -0.091 -16.572  0.00  0.00    +0.033 A 
ATOM     20  C   UNL     1     -10.891  -1.089 -16.278  0.00  0.00    +0.111 A 
ENDBRANCH   1  18
TORSDOF 3
ENDMDL
MODEL 2
REMARK VINA RESULT:      -7.2      0.270      1.112
REMARK  Name = min_compound926.pdb
REMARK  6 active torsions:
REMARK  status: ('A' for Active; 'I' for Inactive)
REMARK    1  A    between atoms: _6  and  _8
REMARK    2  A    between atoms: _9  and  _15
REMARK    3  A    between atoms: _10  and  _16
REMARK    4  A    between atoms: _12  and  _19
REMARK    5  A    between atoms: _16  and  _17
REMARK    6  A    between atoms: _16  and  _18
REMARK                            x       y       z     vdW  Elec       q    Type
REMARK                         _______ _______ _______ _____ _____    ______ ____
ROOT
ATOM      1  C   UNL     1     -12.388   1.981 -17.497  0.00  0.00    +0.244 C 
ATOM      2  N   UNL     1     -12.653   2.914 -16.512  0.00  0.00    -0.308 N 
ATOM      3  H   UNL     1     -12.004   2.986 -15.740  0.00  0.00    +0.149 HD
ATOM      4  O   UNL     1     -12.887   2.031 -18.617  0.00  0.00    -0.270 OA
ENDROOT
BRANCH   2   5
ATOM      5  C   UNL     1     -13.395   4.157 -16.906  0.00  0.00    +0.077 C 
ATOM      6  C   UNL     1     -12.180   5.142 -17.190  0.00  0.00    +0.026 C 
ATOM      7  C   UNL     1     -12.647   6.602 -17.527  0.00  0.00    -0.012 C 
ATOM      8  C   UNL     1     -12.098   7.018 -18.901  0.00  0.00    +0.007 C 
ATOM      9  C   UNL     1     -14.195   6.833 -17.526  0.00  0.00    +0.004 C 
ATOM     10  C   UNL     1     -15.243   5.920 -16.429  0.00  0.00    +0.006 C 
ATOM     11  C   UNL     1     -14.501   4.677 -16.036  0.00  0.00    +0.012 C 
BRANCH  11  12
ATOM     12  C   UNL     1     -14.864   3.955 -14.772  0.00  0.00    -0.012 C 
ATOM     13  C   UNL     1     -15.143   4.730 -13.519  0.00  0.00    +0.007 C 
ATOM     14  C   UNL     1     -15.991   2.902 -14.990  0.00  0.00    +0.007 C 
ENDBRANCH  11  12
ENDBRANCH   2   5
BRANCH   1  18
ATOM     15  N   UNL     1      -9.462  -1.000 -16.594  0.00  0.00    -0.263 NA
ATOM     16  C   UNL     1     -10.743  -1.147 -16.196  0.00  0.00    +0.111 A 
ATOM     17  C   UNL     1     -11.739  -0.223 -16.454  0.00  0.00    +0.033 A 
ATOM     18  C   UNL     1     -11.397   0.923 -17.170  0.00  0.00    +0.040 A 
ATOM     19  C   UNL     1     -10.085   1.091 -17.613  0.00  0.00    +0.033 A 
ATOM     20  C   UNL     1      -9.162   0.110 -17.299  0.00  0.00    +0.111 A 
ENDBRANCH   1  18
TORSDOF 3
ENDMDL
MODEL 3
REMARK VINA RESULT:      -6.9      1.625      3.575
REMARK  Name = min_compound926.pdb
REMARK  6 active torsions:
REMARK  status: ('A' for Active; 'I' for Inactive)
REMARK    1  A    between atoms: _6  and  _8
REMARK    2  A    between atoms: _9  and  _15
REMARK    3  A    between atoms: _10  and  _16
REMARK    4  A    between atoms: _12  and  _19
REMARK    5  A    between atoms: _16  and  _17
REMARK    6  A    between atoms: _16  and  _18
REMARK                            x       y       z     vdW  Elec       q    Type
REMARK                         _______ _______ _______ _____ _____    ______ ____
ROOT
ATOM      1  C   UNL     1     -11.239   3.285 -16.542  0.00  0.00    +0.244 C 
ATOM      2  N   UNL     1     -12.195   3.752 -17.426  0.00  0.00    -0.308 N 
ATOM      3  H   UNL     1     -12.769   3.072 -17.907  0.00  0.00    +0.149 HD
ATOM      4  O   UNL     1     -10.736   3.987 -15.671  0.00  0.00    -0.270 OA
ENDROOT
BRANCH   2   5
ATOM      5  C   UNL     1     -12.801   5.097 -17.157  0.00  0.00    +0.077 C 
ATOM      6  C   UNL     1     -14.212   4.666 -16.563  0.00  0.00    +0.026 C 
ATOM      7  C   UNL     1     -15.151   5.890 -16.278  0.00  0.00    -0.012 C 
ATOM      8  C   UNL     1     -15.570   5.889 -14.799  0.00  0.00    +0.007 C 
ATOM      9  C   UNL     1     -14.552   7.296 -16.618  0.00  0.00    +0.004 C 
ATOM     10  C   UNL     1     -13.415   7.490 -17.962  0.00  0.00    +0.006 C 
ATOM     11  C   UNL     1     -12.809   6.145 -18.231  0.00  0.00    +0.012 C 
BRANCH  11  12
ATOM     12  C   UNL     1     -12.211   5.847 -19.573  0.00  0.00    -0.012 C 
ATOM     13  C   UNL     1     -13.033   5.166 -20.627  0.00  0.00    +0.007 C 
ATOM     14  C   UNL     1     -11.495   7.083 -20.196  0.00  0.00    +0.007 C 
ENDBRANCH  11  12
ENDBRANCH   2   5
BRANCH   1  18
ATOM     15  N   UNL     1     -10.186  -0.853 -16.719  0.00  0.00    -0.263 NA
ATOM     16  C   UNL     1     -10.759  -0.240 -17.776  0.00  0.00    +0.111 A 
ATOM     17  C   UNL     1     -11.124   1.094 -17.787  0.00  0.00    +0.033 A 
ATOM     18  C   UNL     1     -10.882   1.847 -16.639  0.00  0.00    +0.040 A 
ATOM     19  C   UNL     1     -10.271   1.245 -15.539  0.00  0.00    +0.033 A 
ATOM     20  C   UNL     1      -9.948  -0.097 -15.627  0.00  0.00    +0.111 A 
ENDBRANCH   1  18
TORSDOF 3
ENDMDL
MODEL 4
REMARK VINA RESULT:      -6.7      1.605      3.710
REMARK  Name = min_compound926.pdb
REMARK  6 active torsions:
REMARK  status: ('A' for Active; 'I' for Inactive)
REMARK    1  A    between atoms: _6  and  _8
REMARK    2  A    between atoms: _9  and  _15
REMARK    3  A    between atoms: _10  and  _16
REMARK    4  A    between atoms: _12  and  _19
REMARK    5  A    between atoms: _16  and  _17
REMARK    6  A    between atoms: _16  and  _18
REMARK                            x       y       z     vdW  Elec       q    Type
REMARK                         _______ _______ _______ _____ _____    ______ ____
ROOT
ATOM      1  C   UNL     1     -11.986   2.345 -15.901  0.00  0.00    +0.244 C 
ATOM      2  N   UNL     1     -13.331   2.343 -16.223  0.00  0.00    -0.308 N 
ATOM      3  H   UNL     1     -13.755   1.463 -16.482  0.00  0.00    +0.149 HD
ATOM      4  O   UNL     1     -11.454   3.245 -15.259  0.00  0.00    -0.270 OA
ENDROOT
BRANCH   2   5
ATOM      5  C   UNL     1     -14.211   3.364 -15.564  0.00  0.00    +0.077 C 
ATOM      6  C   UNL     1     -15.497   2.482 -15.254  0.00  0.00    +0.026 C 
ATOM      7  C   UNL     1     -16.676   3.318 -14.646  0.00  0.00    -0.012 C 
ATOM      8  C   UNL     1     -17.085   2.727 -13.287  0.00  0.00    +0.007 C 
ATOM      9  C   UNL     1     -16.391   4.845 -14.451  0.00  0.00    +0.004 C 
ATOM     10  C   UNL     1     -15.322   5.712 -15.564  0.00  0.00    +0.006 C 
ATOM     11  C   UNL     1     -14.442   4.691 -16.223  0.00  0.00    +0.012 C 
BRANCH  11  12
ATOM     12  C   UNL     1     -13.793   4.998 -17.540  0.00  0.00    -0.012 C 
ATOM     13  C   UNL     1     -14.604   4.961 -18.802  0.00  0.00    +0.007 C 
ATOM     14  C   UNL     1     -12.958   6.312 -17.502  0.00  0.00    +0.007 C 
ENDBRANCH  11  12
ENDBRANCH   2   5
BRANCH   1  18
ATOM     15  N   UNL     1      -9.756  -1.073 -17.170  0.00  0.00    -0.263 NA
ATOM     16  C   UNL     1      -9.574  -0.547 -15.941  0.00  0.00    +0.111 A 
ATOM     17  C   UNL     1     -10.261   0.556 -15.466  0.00  0.00    +0.033 A 
ATOM     18  C   UNL     1     -11.198   1.154 -16.308  0.00  0.00    +0.040 A 
ATOM     19  C   UNL     1     -11.422   0.618 -17.576  0.00  0.00    +0.033 A 
ATOM     20  C   UNL     1     -10.680  -0.484 -17.958  0.00  0.00    +0.111 A 
ENDBRANCH   1  18
TORSDOF 3
ENDMDL
MODEL 5
REMARK VINA RESULT:      -6.5     12.649     14.440
REMARK  Name = min_compound926.pdb
REMARK  6 active torsions:
REMARK  status: ('A' for Active; 'I' for Inactive)
REMARK    1  A    between atoms: _6  and  _8
REMARK    2  A    between atoms: _9  and  _15
REMARK    3  A    between atoms: _10  and  _16
REMARK    4  A    between atoms: _12  and  _19
REMARK    5  A    between atoms: _16  and  _17
REMARK    6  A    between atoms: _16  and  _18
REMARK                            x       y       z     vdW  Elec       q    Type
REMARK                         _______ _______ _______ _____ _____    ______ ____
ROOT
ATOM      1  C   UNL     1     -15.370  -2.256  -2.865  0.00  0.00    +0.244 C 
ATOM      2  N   UNL     1     -14.663  -1.627  -3.873  0.00  0.00    -0.308 N 
ATOM      3  H   UNL     1     -13.900  -2.132  -4.303  0.00  0.00    +0.149 HD
ATOM      4  O   UNL     1     -16.492  -1.903  -2.515  0.00  0.00    -0.270 OA
ENDROOT
BRANCH   2   5
ATOM      5  C   UNL     1     -15.391  -0.626  -4.720  0.00  0.00    +0.077 C 
ATOM      6  C   UNL     1     -15.075  -1.191  -6.172  0.00  0.00    +0.026 C 
ATOM      7  C   UNL     1     -15.625  -0.269  -7.316  0.00  0.00    -0.012 C 
ATOM      8  C   UNL     1     -16.573  -1.073  -8.221  0.00  0.00    +0.007 C 
ATOM      9  C   UNL     1     -16.375   1.021  -6.843  0.00  0.00    +0.004 C 
ATOM     10  C   UNL     1     -15.900   1.843  -5.349  0.00  0.00    +0.006 C 
ATOM     11  C   UNL     1     -15.172   0.842  -4.501  0.00  0.00    +0.012 C 
BRANCH  11  12
ATOM     12  C   UNL     1     -14.226   1.309  -3.436  0.00  0.00    -0.012 C 
ATOM     13  C   UNL     1     -12.977   0.529  -3.147  0.00  0.00    +0.007 C 
ATOM     14  C   UNL     1     -13.870   2.819  -3.573  0.00  0.00    +0.007 C 
ENDBRANCH  11  12
ENDBRANCH   2   5
BRANCH   1  18
ATOM     15  N   UNL     1     -13.482  -5.633  -1.049  0.00  0.00    -0.263 NA
ATOM     16  C   UNL     1     -14.666  -5.762  -1.683  0.00  0.00    +0.111 A 
ATOM     17  C   UNL     1     -15.331  -4.712  -2.292  0.00  0.00    +0.033 A 
ATOM     18  C   UNL     1     -14.740  -3.451  -2.248  0.00  0.00    +0.040 A 
ATOM     19  C   UNL     1     -13.505  -3.292  -1.619  0.00  0.00    +0.033 A 
ATOM     20  C   UNL     1     -12.924  -4.404  -1.036  0.00  0.00    +0.111 A 
ENDBRANCH   1  18
TORSDOF 3
ENDMDL
MODEL 6
REMARK VINA RESULT:      -6.5      3.323      5.675
REMARK  Name = min_compound926.pdb
REMARK  6 active torsions:
REMARK  status: ('A' for Active; 'I' for Inactive)
REMARK    1  A    between atoms: _6  and  _8
REMARK    2  A    between atoms: _9  and  _15
REMARK    3  A    between atoms: _10  and  _16
REMARK    4  A    between atoms: _12  and  _19
REMARK    5  A    between atoms: _16  and  _17
REMARK    6  A    between atoms: _16  and  _18
REMARK                            x       y       z     vdW  Elec       q    Type
REMARK                         _______ _______ _______ _____ _____    ______ ____
ROOT
ATOM      1  C   UNL     1     -13.413   3.232 -19.524  0.00  0.00    +0.244 C 
ATOM      2  N   UNL     1     -13.274   2.086 -18.763  0.00  0.00    -0.308 N 
ATOM      3  H   UNL     1     -13.502   1.200 -19.193  0.00  0.00    +0.149 HD
ATOM      4  O   UNL     1     -12.860   4.291 -19.245  0.00  0.00    -0.270 OA
ENDROOT
BRANCH   2   5
ATOM      5  C   UNL     1     -12.226   2.080 -17.690  0.00  0.00    +0.077 C 
ATOM      6  C   UNL     1     -11.663   0.601 -17.843  0.00  0.00    +0.026 C 
ATOM      7  C   UNL     1     -10.595   0.241 -16.752  0.00  0.00    -0.012 C 
ATOM      8  C   UNL     1      -9.282  -0.181 -17.429  0.00  0.00    +0.007 C 
ATOM      9  C   UNL     1     -10.273   1.375 -15.721  0.00  0.00    +0.004 C 
ATOM     10  C   UNL     1     -11.523   2.528 -15.229  0.00  0.00    +0.006 C 
ATOM     11  C   UNL     1     -12.571   2.534 -16.302  0.00  0.00    +0.012 C 
BRANCH  11  12
ATOM     12  C   UNL     1     -13.964   2.994 -15.988  0.00  0.00    -0.012 C 
ATOM     13  C   UNL     1     -15.059   1.988 -15.794  0.00  0.00    +0.007 C 
ATOM     14  C   UNL     1     -14.002   4.030 -14.826  0.00  0.00    +0.007 C 
ENDBRANCH  11  12
ENDBRANCH   2   5
BRANCH   1  18
ATOM     15  N   UNL     1     -15.730   2.800 -23.090  0.00  0.00    -0.263 NA
ATOM     16  C   UNL     1     -15.548   4.013 -22.527  0.00  0.00    +0.111 A 
ATOM     17  C   UNL     1     -14.811   4.224 -21.375  0.00  0.00    +0.033 A 
ATOM     18  C   UNL     1     -14.220   3.118 -20.766  0.00  0.00    +0.040 A 
ATOM     19  C   UNL     1     -14.373   1.855 -21.338  0.00  0.00    +0.033 A 
ATOM     20  C   UNL     1     -15.134   1.750 -22.489  0.00  0.00    +0.111 A 
ENDBRANCH   1  18
TORSDOF 3
ENDMDL
MODEL 7
REMARK VINA RESULT:      -6.5      3.102      6.134
REMARK  Name = min_compound926.pdb
REMARK  6 active torsions:
REMARK  status: ('A' for Active; 'I' for Inactive)
REMARK    1  A    between atoms: _6  and  _8
REMARK    2  A    between atoms: _9  and  _15
REMARK    3  A    between atoms: _10  and  _16
REMARK    4  A    between atoms: _12  and  _19
REMARK    5  A    between atoms: _16  and  _17
REMARK    6  A    between atoms: _16  and  _18
REMARK                            x       y       z     vdW  Elec       q    Type
REMARK                         _______ _______ _______ _____ _____    ______ ____
ROOT
ATOM      1  C   UNL     1     -15.055   4.747 -14.125  0.00  0.00    +0.244 C 
ATOM      2  N   UNL     1     -14.230   3.857 -14.787  0.00  0.00    -0.308 N 
ATOM      3  H   UNL     1     -14.280   2.881 -14.526  0.00  0.00    +0.149 HD
ATOM      4  O   UNL     1     -15.333   5.858 -14.568  0.00  0.00    -0.270 OA
ENDROOT
BRANCH   2   5
ATOM      5  C   UNL     1     -13.851   4.173 -16.203  0.00  0.00    +0.077 C 
ATOM      6  C   UNL     1     -14.941   3.326 -16.991  0.00  0.00    +0.026 C 
ATOM      7  C   UNL     1     -14.734   3.364 -18.546  0.00  0.00    -0.012 C 
ATOM      8  C   UNL     1     -16.004   3.899 -19.226  0.00  0.00    +0.007 C 
ATOM      9  C   UNL     1     -13.516   4.211 -19.045  0.00  0.00    +0.004 C 
ATOM     10  C   UNL     1     -12.047   4.342 -18.065  0.00  0.00    +0.006 C 
ATOM     11  C   UNL     1     -12.426   4.026 -16.648  0.00  0.00    +0.012 C 
BRANCH  11  12
ATOM     12  C   UNL     1     -11.381   3.562 -15.678  0.00  0.00    -0.012 C 
ATOM     13  C   UNL     1     -11.094   2.097 -15.528  0.00  0.00    +0.007 C 
ATOM     14  C   UNL     1     -10.039   4.338 -15.829  0.00  0.00    +0.007 C 
ENDBRANCH  11  12
ENDBRANCH   2   5
BRANCH   1  18
ATOM     15  N   UNL     1     -16.758   3.460 -10.422  0.00  0.00    -0.263 NA
ATOM     16  C   UNL     1     -17.267   3.041 -11.599  0.00  0.00    +0.111 A 
ATOM     17  C   UNL     1     -16.766   3.418 -12.832  0.00  0.00    +0.033 A 
ATOM     18  C   UNL     1     -15.669   4.277 -12.856  0.00  0.00    +0.040 A 
ATOM     19  C   UNL     1     -15.108   4.709 -11.654  0.00  0.00    +0.033 A 
ATOM     20  C   UNL     1     -15.686   4.279 -10.474  0.00  0.00    +0.111 A 
ENDBRANCH   1  18
TORSDOF 3
ENDMDL
MODEL 8
REMARK VINA RESULT:      -6.1      8.770     12.017
REMARK  Name = min_compound926.pdb
REMARK  6 active torsions:
REMARK  status: ('A' for Active; 'I' for Inactive)
REMARK    1  A    between atoms: _6  and  _8
REMARK    2  A    between atoms: _9  and  _15
REMARK    3  A    between atoms: _10  and  _16
REMARK    4  A    between atoms: _12  and  _19
REMARK    5  A    between atoms: _16  and  _17
REMARK    6  A    between atoms: _16  and  _18
REMARK                            x       y       z     vdW  Elec       q    Type
REMARK                         _______ _______ _______ _____ _____    ______ ____
ROOT
ATOM      1  C   UNL     1     -16.910   3.119  -7.321  0.00  0.00    +0.244 C 
ATOM      2  N   UNL     1     -16.134   1.978  -7.229  0.00  0.00    -0.308 N 
ATOM      3  H   UNL     1     -15.319   1.909  -7.824  0.00  0.00    +0.149 HD
ATOM      4  O   UNL     1     -17.694   3.466  -6.443  0.00  0.00    -0.270 OA
ENDROOT
BRANCH   2   5
ATOM      5  C   UNL     1     -16.082   1.270  -5.908  0.00  0.00    +0.077 C 
ATOM      6  C   UNL     1     -14.517   1.294  -5.627  0.00  0.00    +0.026 C 
ATOM      7  C   UNL     1     -14.120   0.507  -4.329  0.00  0.00    -0.012 C 
ATOM      8  C   UNL     1     -13.370   1.440  -3.365  0.00  0.00    +0.007 C 
ATOM      9  C   UNL     1     -15.307  -0.152  -3.549  0.00  0.00    +0.004 C 
ATOM     10  C   UNL     1     -16.730  -0.754  -4.413  0.00  0.00    +0.006 C 
ATOM     11  C   UNL     1     -16.782  -0.046  -5.734  0.00  0.00    +0.012 C 
BRANCH  11  12
ATOM     12  C   UNL     1     -17.533  -0.653  -6.882  0.00  0.00    -0.012 C 
ATOM     13  C   UNL     1     -18.791  -0.007  -7.380  0.00  0.00    +0.007 C 
ATOM     14  C   UNL     1     -16.609  -0.983  -8.092  0.00  0.00    +0.007 C 
ENDBRANCH  11  12
ENDBRANCH   2   5
BRANCH   1  18
ATOM     15  N   UNL     1     -16.298   5.491 -10.823  0.00  0.00    -0.263 NA
ATOM     16  C   UNL     1     -16.864   6.022  -9.719  0.00  0.00    +0.111 A 
ATOM     17  C   UNL     1     -17.091   5.313  -8.553  0.00  0.00    +0.033 A 
ATOM     18  C   UNL     1     -16.708   3.973  -8.519  0.00  0.00    +0.040 A 
ATOM     19  C   UNL     1     -16.100   3.403  -9.638  0.00  0.00    +0.033 A 
ATOM     20  C   UNL     1     -15.922   4.197 -10.757  0.00  0.00    +0.111 A 
ENDBRANCH   1  18
TORSDOF 3
ENDMDL
MODEL 9
REMARK VINA RESULT:      -6.0     13.357     15.363
REMARK  Name = min_compound926.pdb
REMARK  6 active torsions:
REMARK  status: ('A' for Active; 'I' for Inactive)
REMARK    1  A    between atoms: _6  and  _8
REMARK    2  A    between atoms: _9  and  _15
REMARK    3  A    between atoms: _10  and  _16
REMARK    4  A    between atoms: _12  and  _19
REMARK    5  A    between atoms: _16  and  _17
REMARK    6  A    between atoms: _16  and  _18
REMARK                            x       y       z     vdW  Elec       q    Type
REMARK                         _______ _______ _______ _____ _____    ______ ____
ROOT
ATOM      1  C   UNL     1     -15.431  -2.580  -2.136  0.00  0.00    +0.244 C 
ATOM      2  N   UNL     1     -15.844  -2.096  -3.363  0.00  0.00    -0.308 N 
ATOM      3  H   UNL     1     -16.139  -2.765  -4.062  0.00  0.00    +0.149 HD
ATOM      4  O   UNL     1     -15.381  -1.886  -1.126  0.00  0.00    -0.270 OA
ENDROOT
BRANCH   2   5
ATOM      5  C   UNL     1     -16.472  -0.735  -3.404  0.00  0.00    +0.077 C 
ATOM      6  C   UNL     1     -17.724  -1.021  -4.342  0.00  0.00    +0.026 C 
ATOM      7  C   UNL     1     -18.543   0.274  -4.675  0.00  0.00    -0.012 C 
ATOM      8  C   UNL     1     -20.005   0.091  -4.235  0.00  0.00    +0.007 C 
ATOM      9  C   UNL     1     -18.002   1.599  -4.040  0.00  0.00    +0.004 C 
ATOM     10  C   UNL     1     -16.266   1.828  -3.776  0.00  0.00    +0.006 C 
ATOM     11  C   UNL     1     -15.638   0.467  -3.735  0.00  0.00    +0.012 C 
BRANCH  11  12
ATOM     12  C   UNL     1     -14.175   0.307  -4.026  0.00  0.00    -0.012 C 
ATOM     13  C   UNL     1     -13.712   0.059  -5.431  0.00  0.00    +0.007 C 
ATOM     14  C   UNL     1     -13.313   1.438  -3.390  0.00  0.00    +0.007 C 
ENDBRANCH  11  12
ENDBRANCH   2   5
BRANCH   1  18
ATOM     15  N   UNL     1     -14.396  -6.720  -1.896  0.00  0.00    -0.263 NA
ATOM     16  C   UNL     1     -15.678  -6.338  -2.069  0.00  0.00    +0.111 A 
ATOM     17  C   UNL     1     -16.083  -5.017  -2.155  0.00  0.00    +0.033 A 
ATOM     18  C   UNL     1     -15.105  -4.028  -2.061  0.00  0.00    +0.040 A 
ATOM     19  C   UNL     1     -13.769  -4.394  -1.904  0.00  0.00    +0.033 A 
ATOM     20  C   UNL     1     -13.469  -5.742  -1.824  0.00  0.00    +0.111 A 
ENDBRANCH   1  18
TORSDOF 3
ENDMDL
