MODEL 1
REMARK VINA RESULT:      -3.6      0.000      0.000
REMARK  Name = min_compound6.pdb
REMARK  1 active torsions:
REMARK  status: ('A' for Active; 'I' for Inactive)
REMARK    1  A    between atoms: _1  and  _8
REMARK                            x       y       z     vdW  Elec       q    Type
REMARK                         _______ _______ _______ _____ _____    ______ ____
ROOT
ATOM      1  C   UNL     1     -10.203   0.053 -15.995  0.00  0.00    +0.208 C 
ATOM      2  S   UNL     1     -11.761  -0.278 -16.665  0.00  0.00    -0.048 S 
ATOM      3  S   UNL     1     -12.368   1.676 -16.675  0.00  0.00    -0.031 S 
ATOM      4  C   UNL     1     -10.890   2.329 -15.998  0.00  0.00    +0.119 C 
ATOM      5  S   UNL     1     -10.608   3.936 -15.690  0.00  0.00    -0.027 S 
ATOM      6  N   UNL     1      -9.960   1.361 -15.739  0.00  0.00    -0.308 N 
ATOM      7  H   UNL     1      -9.064   1.607 -15.347  0.00  0.00    +0.149 HD
ENDROOT
BRANCH   1   8
ATOM      8  N   UNL     1      -9.321  -0.842 -15.746  0.00  0.00    -0.304 NA
ATOM      9  H   UNL     1      -9.749  -1.768 -15.779  0.00  0.00    +0.121 HD
ATOM     10  H   UNL     1      -8.588  -0.771 -16.463  0.00  0.00    +0.121 HD
ENDBRANCH   1   8
TORSDOF 1
ENDMDL
MODEL 2
REMARK VINA RESULT:      -3.6      1.584      3.234
REMARK  Name = min_compound6.pdb
REMARK  1 active torsions:
REMARK  status: ('A' for Active; 'I' for Inactive)
REMARK    1  A    between atoms: _1  and  _8
REMARK                            x       y       z     vdW  Elec       q    Type
REMARK                         _______ _______ _______ _____ _____    ______ ____
ROOT
ATOM      1  C   UNL     1     -10.632   2.937 -15.958  0.00  0.00    +0.208 C 
ATOM      2  S   UNL     1     -11.715   2.934 -17.305  0.00  0.00    -0.048 S 
ATOM      3  S   UNL     1     -11.606   0.914 -17.615  0.00  0.00    -0.031 S 
ATOM      4  C   UNL     1     -10.491   0.589 -16.302  0.00  0.00    +0.119 C 
ATOM      5  S   UNL     1      -9.900  -0.910 -15.899  0.00  0.00    -0.027 S 
ATOM      6  N   UNL     1     -10.143   1.721 -15.619  0.00  0.00    -0.308 N 
ATOM      7  H   UNL     1      -9.505   1.668 -14.838  0.00  0.00    +0.149 HD
ENDROOT
BRANCH   1   8
ATOM      8  N   UNL     1     -10.295   3.988 -15.308  0.00  0.00    -0.304 NA
ATOM      9  H   UNL     1     -10.682   3.950 -14.365  0.00  0.00    +0.121 HD
ATOM     10  H   UNL     1      -9.269   4.016 -15.263  0.00  0.00    +0.121 HD
ENDBRANCH   1   8
TORSDOF 1
ENDMDL
MODEL 3
REMARK VINA RESULT:      -3.5      2.645      3.658
REMARK  Name = min_compound6.pdb
REMARK  1 active torsions:
REMARK  status: ('A' for Active; 'I' for Inactive)
REMARK    1  A    between atoms: _1  and  _8
REMARK                            x       y       z     vdW  Elec       q    Type
REMARK                         _______ _______ _______ _____ _____    ______ ____
ROOT
ATOM      1  C   UNL     1     -12.313   1.588 -18.418  0.00  0.00    +0.208 C 
ATOM      2  S   UNL     1     -12.392   2.904 -17.301  0.00  0.00    -0.048 S 
ATOM      3  S   UNL     1     -11.194   2.019 -15.899  0.00  0.00    -0.031 S 
ATOM      4  C   UNL     1     -10.919   0.542 -16.801  0.00  0.00    +0.119 C 
ATOM      5  S   UNL     1      -9.992  -0.736 -16.285  0.00  0.00    -0.027 S 
ATOM      6  N   UNL     1     -11.560   0.539 -18.009  0.00  0.00    -0.308 N 
ATOM      7  H   UNL     1     -11.482  -0.256 -18.625  0.00  0.00    +0.149 HD
ENDROOT
BRANCH   1   8
ATOM      8  N   UNL     1     -12.907   1.570 -19.553  0.00  0.00    -0.304 NA
ATOM      9  H   UNL     1     -12.431   2.195 -20.203  0.00  0.00    +0.121 HD
ATOM     10  H   UNL     1     -12.878   0.607 -19.909  0.00  0.00    +0.121 HD
ENDBRANCH   1   8
TORSDOF 1
ENDMDL
MODEL 4
REMARK VINA RESULT:      -3.5     12.885     13.043
REMARK  Name = min_compound6.pdb
REMARK  1 active torsions:
REMARK  status: ('A' for Active; 'I' for Inactive)
REMARK    1  A    between atoms: _1  and  _8
REMARK                            x       y       z     vdW  Elec       q    Type
REMARK                         _______ _______ _______ _____ _____    ______ ____
ROOT
ATOM      1  C   UNL     1     -14.651  -1.249  -5.381  0.00  0.00    +0.208 C 
ATOM      2  S   UNL     1     -14.044   0.364  -5.247  0.00  0.00    -0.048 S 
ATOM      3  S   UNL     1     -14.017   0.373  -3.201  0.00  0.00    -0.031 S 
ATOM      4  C   UNL     1     -14.627  -1.259  -3.004  0.00  0.00    +0.119 C 
ATOM      5  S   UNL     1     -14.892  -2.011  -1.548  0.00  0.00    -0.027 S 
ATOM      6  N   UNL     1     -14.871  -1.874  -4.201  0.00  0.00    -0.308 N 
ATOM      7  H   UNL     1     -15.226  -2.819  -4.225  0.00  0.00    +0.149 HD
ENDROOT
BRANCH   1   8
ATOM      8  N   UNL     1     -14.885  -1.839  -6.494  0.00  0.00    -0.304 NA
ATOM      9  H   UNL     1     -14.721  -1.196  -7.269  0.00  0.00    +0.121 HD
ATOM     10  H   UNL     1     -14.248  -2.642  -6.566  0.00  0.00    +0.121 HD
ENDBRANCH   1   8
TORSDOF 1
ENDMDL
MODEL 5
REMARK VINA RESULT:      -3.4     10.778     10.933
REMARK  Name = min_compound6.pdb
REMARK  1 active torsions:
REMARK  status: ('A' for Active; 'I' for Inactive)
REMARK    1  A    between atoms: _1  and  _8
REMARK                            x       y       z     vdW  Elec       q    Type
REMARK                         _______ _______ _______ _____ _____    ______ ____
ROOT
ATOM      1  C   UNL     1     -15.165  -0.921  -6.514  0.00  0.00    +0.208 C 
ATOM      2  S   UNL     1     -14.418   0.598  -6.860  0.00  0.00    -0.048 S 
ATOM      3  S   UNL     1     -16.136   1.495  -7.516  0.00  0.00    -0.031 S 
ATOM      4  C   UNL     1     -17.172   0.102  -7.274  0.00  0.00    +0.119 C 
ATOM      5  S   UNL     1     -18.800   0.052  -7.599  0.00  0.00    -0.027 S 
ATOM      6  N   UNL     1     -16.492  -0.975  -6.775  0.00  0.00    -0.308 N 
ATOM      7  H   UNL     1     -16.976  -1.841  -6.591  0.00  0.00    +0.149 HD
ENDROOT
BRANCH   1   8
ATOM      8  N   UNL     1     -14.543  -1.939  -6.048  0.00  0.00    -0.304 NA
ATOM      9  H   UNL     1     -15.019  -2.284  -5.214  0.00  0.00    +0.121 HD
ATOM     10  H   UNL     1     -14.539  -2.667  -6.773  0.00  0.00    +0.121 HD
ENDBRANCH   1   8
TORSDOF 1
ENDMDL
MODEL 6
REMARK VINA RESULT:      -3.2     11.486     11.673
REMARK  Name = min_compound6.pdb
REMARK  1 active torsions:
REMARK  status: ('A' for Active; 'I' for Inactive)
REMARK    1  A    between atoms: _1  and  _8
REMARK                            x       y       z     vdW  Elec       q    Type
REMARK                         _______ _______ _______ _____ _____    ______ ____
ROOT
ATOM      1  C   UNL     1     -15.598  -0.581  -6.990  0.00  0.00    +0.208 C 
ATOM      2  S   UNL     1     -14.516   0.765  -6.928  0.00  0.00    -0.048 S 
ATOM      3  S   UNL     1     -13.807   0.335  -5.057  0.00  0.00    -0.031 S 
ATOM      4  C   UNL     1     -14.787  -1.098  -4.817  0.00  0.00    +0.119 C 
ATOM      5  S   UNL     1     -14.769  -2.051  -3.456  0.00  0.00    -0.027 S 
ATOM      6  N   UNL     1     -15.593  -1.366  -5.887  0.00  0.00    -0.308 N 
ATOM      7  H   UNL     1     -16.208  -2.167  -5.874  0.00  0.00    +0.149 HD
ENDROOT
BRANCH   1   8
ATOM      8  N   UNL     1     -16.360  -0.847  -7.986  0.00  0.00    -0.304 NA
ATOM      9  H   UNL     1     -16.981  -0.058  -8.166  0.00  0.00    +0.121 HD
ATOM     10  H   UNL     1     -15.762  -1.016  -8.804  0.00  0.00    +0.121 HD
ENDBRANCH   1   8
TORSDOF 1
ENDMDL
MODEL 7
REMARK VINA RESULT:      -3.1     10.941     10.976
REMARK  Name = min_compound6.pdb
REMARK  1 active torsions:
REMARK  status: ('A' for Active; 'I' for Inactive)
REMARK    1  A    between atoms: _1  and  _8
REMARK                            x       y       z     vdW  Elec       q    Type
REMARK                         _______ _______ _______ _____ _____    ______ ____
ROOT
ATOM      1  C   UNL     1     -15.146  -0.705  -6.091  0.00  0.00    +0.208 C 
ATOM      2  S   UNL     1     -15.730  -0.032  -4.611  0.00  0.00    -0.048 S 
ATOM      3  S   UNL     1     -16.443   1.685  -5.466  0.00  0.00    -0.031 S 
ATOM      4  C   UNL     1     -15.968   1.282  -7.104  0.00  0.00    +0.119 C 
ATOM      5  S   UNL     1     -16.222   2.240  -8.437  0.00  0.00    -0.027 S 
ATOM      6  N   UNL     1     -15.347   0.066  -7.185  0.00  0.00    -0.308 N 
ATOM      7  H   UNL     1     -15.024  -0.282  -8.076  0.00  0.00    +0.149 HD
ENDROOT
BRANCH   1   8
ATOM      8  N   UNL     1     -14.563  -1.842  -6.184  0.00  0.00    -0.304 NA
ATOM      9  H   UNL     1     -15.183  -2.513  -6.637  0.00  0.00    +0.121 HD
ATOM     10  H   UNL     1     -13.713  -1.716  -6.747  0.00  0.00    +0.121 HD
ENDBRANCH   1   8
TORSDOF 1
ENDMDL
MODEL 8
REMARK VINA RESULT:      -3.1     12.761     12.852
REMARK  Name = min_compound6.pdb
REMARK  1 active torsions:
REMARK  status: ('A' for Active; 'I' for Inactive)
REMARK    1  A    between atoms: _1  and  _8
REMARK                            x       y       z     vdW  Elec       q    Type
REMARK                         _______ _______ _______ _____ _____    ______ ____
ROOT
ATOM      1  C   UNL     1     -14.879  -1.005  -5.391  0.00  0.00    +0.208 C 
ATOM      2  S   UNL     1     -13.974   0.459  -5.230  0.00  0.00    -0.048 S 
ATOM      3  S   UNL     1     -15.151   1.233  -3.747  0.00  0.00    -0.031 S 
ATOM      4  C   UNL     1     -16.259  -0.123  -3.668  0.00  0.00    +0.119 C 
ATOM      5  S   UNL     1     -17.560  -0.236  -2.642  0.00  0.00    -0.027 S 
ATOM      6  N   UNL     1     -15.943  -1.110  -4.560  0.00  0.00    -0.308 N 
ATOM      7  H   UNL     1     -16.505  -1.946  -4.614  0.00  0.00    +0.149 HD
ENDROOT
BRANCH   1   8
ATOM      8  N   UNL     1     -14.596  -1.939  -6.221  0.00  0.00    -0.304 NA
ATOM      9  H   UNL     1     -14.097  -2.689  -5.741  0.00  0.00    +0.121 HD
ATOM     10  H   UNL     1     -15.478  -2.297  -6.607  0.00  0.00    +0.121 HD
ENDBRANCH   1   8
TORSDOF 1
ENDMDL
MODEL 9
REMARK VINA RESULT:      -3.1      9.461     10.721
REMARK  Name = min_compound6.pdb
REMARK  1 active torsions:
REMARK  status: ('A' for Active; 'I' for Inactive)
REMARK    1  A    between atoms: _1  and  _8
REMARK                            x       y       z     vdW  Elec       q    Type
REMARK                         _______ _______ _______ _____ _____    ______ ____
ROOT
ATOM      1  C   UNL     1     -15.967  10.926 -15.167  0.00  0.00    +0.208 C 
ATOM      2  S   UNL     1     -17.123  10.773 -16.442  0.00  0.00    -0.048 S 
ATOM      3  S   UNL     1     -17.499   8.790 -16.102  0.00  0.00    -0.031 S 
ATOM      4  C   UNL     1     -16.390   8.623 -14.756  0.00  0.00    +0.119 C 
ATOM      5  S   UNL     1     -16.125   7.222 -13.904  0.00  0.00    -0.027 S 
ATOM      6  N   UNL     1     -15.742   9.791 -14.464  0.00  0.00    -0.308 N 
ATOM      7  H   UNL     1     -15.074   9.827 -13.707  0.00  0.00    +0.149 HD
ENDROOT
BRANCH   1   8
ATOM      8  N   UNL     1     -15.351  12.012 -14.880  0.00  0.00    -0.304 NA
ATOM      9  H   UNL     1     -15.962  12.624 -14.340  0.00  0.00    +0.121 HD
ATOM     10  H   UNL     1     -14.522  11.768 -14.325  0.00  0.00    +0.121 HD
ENDBRANCH   1   8
TORSDOF 1
ENDMDL
