MODEL 1
REMARK VINA RESULT:      -7.5      0.000      0.000
REMARK  Name = min_compound934.pdb
REMARK  3 active torsions:
REMARK  status: ('A' for Active; 'I' for Inactive)
REMARK    1  A    between atoms: _3  and  _16
REMARK    2  A    between atoms: _5  and  _22
REMARK    3  A    between atoms: _7  and  _9
REMARK                            x       y       z     vdW  Elec       q    Type
REMARK                         _______ _______ _______ _____ _____    ______ ____
ROOT
ATOM      1  N   UNL     1     -10.674   4.112 -17.032  0.00  0.00    -0.172 NA
ATOM      2  C   UNL     1     -11.518   3.067 -16.963  0.00  0.00    +0.094 A 
ATOM      3  C   UNL     1     -12.868   3.527 -16.888  0.00  0.00    +0.073 A 
ATOM      4  C   UNL     1     -12.800   4.899 -16.913  0.00  0.00    +0.121 A 
ATOM      5  N   UNL     1     -11.469   5.195 -17.001  0.00  0.00    -0.263 N 
ATOM      6  H   UNL     1     -11.059   6.125 -17.041  0.00  0.00    +0.190 HD
ENDROOT
BRANCH   2   7
ATOM      7  C   UNL     1     -11.028   1.681 -16.972  0.00  0.00    +0.002 A 
ATOM      8  C   UNL     1     -11.866   0.630 -16.562  0.00  0.00    +0.010 A 
ATOM      9  C   UNL     1     -11.414  -0.693 -16.565  0.00  0.00    +0.001 A 
ATOM     10  C   UNL     1     -10.117  -0.985 -16.978  0.00  0.00    +0.000 A 
ATOM     11  C   UNL     1      -9.272   0.044 -17.387  0.00  0.00    +0.001 A 
ATOM     12  C   UNL     1      -9.725   1.368 -17.384  0.00  0.00    +0.010 A 
ENDBRANCH   2   7
BRANCH   4  13
ATOM     13  N   UNL     1     -13.814   5.837 -16.866  0.00  0.00    -0.267 N 
ATOM     14  H   UNL     1     -14.656   5.569 -16.380  0.00  0.00    +0.157 HD
ATOM     15  C   UNL     1     -13.675   7.084 -17.459  0.00  0.00    +0.249 C 
ATOM     16  O   UNL     1     -12.661   7.440 -18.057  0.00  0.00    -0.270 OA
BRANCH  15  17
ATOM     17  C   UNL     1     -14.832   8.034 -17.354  0.00  0.00    +0.037 A 
ATOM     18  C   UNL     1     -15.173   8.726 -16.182  0.00  0.00    +0.014 A 
ATOM     19  C   UNL     1     -16.271   9.597 -16.169  0.00  0.00    +0.021 A 
ATOM     20  C   UNL     1     -17.033   9.781 -17.321  0.00  0.00    +0.041 A 
ATOM     21 CL   UNL     1     -18.379  10.850 -17.293  0.00  0.00    -0.084 Cl
ATOM     22  C   UNL     1     -16.709   9.102 -18.490  0.00  0.00    +0.021 A 
ATOM     23  C   UNL     1     -15.614   8.233 -18.506  0.00  0.00    +0.014 A 
ENDBRANCH  15  17
ENDBRANCH   4  13
TORSDOF 3
ENDMDL
MODEL 2
REMARK VINA RESULT:      -7.4      1.269      1.713
REMARK  Name = min_compound934.pdb
REMARK  3 active torsions:
REMARK  status: ('A' for Active; 'I' for Inactive)
REMARK    1  A    between atoms: _3  and  _16
REMARK    2  A    between atoms: _5  and  _22
REMARK    3  A    between atoms: _7  and  _9
REMARK                            x       y       z     vdW  Elec       q    Type
REMARK                         _______ _______ _______ _____ _____    ______ ____
ROOT
ATOM      1  N   UNL     1     -12.616   2.749 -18.614  0.00  0.00    -0.172 NA
ATOM      2  C   UNL     1     -12.243   2.394 -17.372  0.00  0.00    +0.094 A 
ATOM      3  C   UNL     1     -12.816   3.282 -16.412  0.00  0.00    +0.073 A 
ATOM      4  C   UNL     1     -13.554   4.190 -17.133  0.00  0.00    +0.121 A 
ATOM      5  N   UNL     1     -13.400   3.825 -18.441  0.00  0.00    -0.263 N 
ATOM      6  H   UNL     1     -13.813   4.286 -19.248  0.00  0.00    +0.190 HD
ENDROOT
BRANCH   2   7
ATOM      7  C   UNL     1     -11.365   1.239 -17.132  0.00  0.00    +0.002 A 
ATOM      8  C   UNL     1     -10.016   1.280 -17.522  0.00  0.00    +0.010 A 
ATOM      9  C   UNL     1      -9.170   0.190 -17.301  0.00  0.00    +0.001 A 
ATOM     10  C   UNL     1      -9.660  -0.959 -16.686  0.00  0.00    +0.000 A 
ATOM     11  C   UNL     1     -10.995  -1.018 -16.292  0.00  0.00    +0.001 A 
ATOM     12  C   UNL     1     -11.842   0.074 -16.514  0.00  0.00    +0.010 A 
ENDBRANCH   2   7
BRANCH   4  13
ATOM     13  N   UNL     1     -14.311   5.261 -16.698  0.00  0.00    -0.267 N 
ATOM     14  H   UNL     1     -15.125   5.044 -16.143  0.00  0.00    +0.157 HD
ATOM     15  C   UNL     1     -13.964   6.568 -17.010  0.00  0.00    +0.249 C 
ATOM     16  O   UNL     1     -12.978   6.865 -17.682  0.00  0.00    -0.270 OA
BRANCH  15  17
ATOM     17  C   UNL     1     -14.850   7.663 -16.492  0.00  0.00    +0.037 A 
ATOM     18  C   UNL     1     -15.188   7.823 -15.140  0.00  0.00    +0.014 A 
ATOM     19  C   UNL     1     -16.022   8.875 -14.739  0.00  0.00    +0.021 A 
ATOM     20  C   UNL     1     -16.524   9.770 -15.681  0.00  0.00    +0.041 A 
ATOM     21 CL   UNL     1     -17.548  11.056 -15.179  0.00  0.00    -0.084 Cl
ATOM     22  C   UNL     1     -16.200   9.625 -17.025  0.00  0.00    +0.021 A 
ATOM     23  C   UNL     1     -15.367   8.576 -17.428  0.00  0.00    +0.014 A 
ENDBRANCH  15  17
ENDBRANCH   4  13
TORSDOF 3
ENDMDL
MODEL 3
REMARK VINA RESULT:      -7.3     10.383     12.333
REMARK  Name = min_compound934.pdb
REMARK  3 active torsions:
REMARK  status: ('A' for Active; 'I' for Inactive)
REMARK    1  A    between atoms: _3  and  _16
REMARK    2  A    between atoms: _5  and  _22
REMARK    3  A    between atoms: _7  and  _9
REMARK                            x       y       z     vdW  Elec       q    Type
REMARK                         _______ _______ _______ _____ _____    ______ ____
ROOT
ATOM      1  N   UNL     1     -16.010   3.880 -10.397  0.00  0.00    -0.172 NA
ATOM      2  C   UNL     1     -17.004   3.052 -10.765  0.00  0.00    +0.094 A 
ATOM      3  C   UNL     1     -17.240   2.081  -9.745  0.00  0.00    +0.073 A 
ATOM      4  C   UNL     1     -16.342   2.360  -8.744  0.00  0.00    +0.121 A 
ATOM      5  N   UNL     1     -15.633   3.443  -9.184  0.00  0.00    -0.263 N 
ATOM      6  H   UNL     1     -14.882   3.915  -8.686  0.00  0.00    +0.190 HD
ENDROOT
BRANCH   2   7
ATOM      7  C   UNL     1     -17.693   3.203 -12.054  0.00  0.00    +0.002 A 
ATOM      8  C   UNL     1     -18.988   3.747 -12.107  0.00  0.00    +0.010 A 
ATOM      9  C   UNL     1     -19.656   3.897 -13.325  0.00  0.00    +0.001 A 
ATOM     10  C   UNL     1     -19.040   3.505 -14.511  0.00  0.00    +0.000 A 
ATOM     11  C   UNL     1     -17.757   2.964 -14.478  0.00  0.00    +0.001 A 
ATOM     12  C   UNL     1     -17.088   2.814 -13.258  0.00  0.00    +0.010 A 
ENDBRANCH   2   7
BRANCH   4  13
ATOM     13  N   UNL     1     -16.142   1.729  -7.531  0.00  0.00    -0.267 N 
ATOM     14  H   UNL     1     -16.953   1.619  -6.940  0.00  0.00    +0.157 HD
ATOM     15  C   UNL     1     -14.890   1.270  -7.149  0.00  0.00    +0.249 C 
ATOM     16  O   UNL     1     -13.884   1.388  -7.848  0.00  0.00    -0.270 OA
BRANCH  15  17
ATOM     17  C   UNL     1     -14.774   0.599  -5.812  0.00  0.00    +0.037 A 
ATOM     18  C   UNL     1     -14.769   1.286  -4.589  0.00  0.00    +0.014 A 
ATOM     19  C   UNL     1     -14.658   0.581  -3.383  0.00  0.00    +0.021 A 
ATOM     20  C   UNL     1     -14.550  -0.808  -3.389  0.00  0.00    +0.041 A 
ATOM     21 CL   UNL     1     -14.412  -1.662  -1.904  0.00  0.00    -0.084 Cl
ATOM     22  C   UNL     1     -14.552  -1.503  -4.593  0.00  0.00    +0.021 A 
ATOM     23  C   UNL     1     -14.664  -0.803  -5.799  0.00  0.00    +0.014 A 
ENDBRANCH  15  17
ENDBRANCH   4  13
TORSDOF 3
ENDMDL
MODEL 4
REMARK VINA RESULT:      -7.2      9.797     10.476
REMARK  Name = min_compound934.pdb
REMARK  3 active torsions:
REMARK  status: ('A' for Active; 'I' for Inactive)
REMARK    1  A    between atoms: _3  and  _16
REMARK    2  A    between atoms: _5  and  _22
REMARK    3  A    between atoms: _7  and  _9
REMARK                            x       y       z     vdW  Elec       q    Type
REMARK                         _______ _______ _______ _____ _____    ______ ____
ROOT
ATOM      1  N   UNL     1     -16.831   2.492  -6.087  0.00  0.00    -0.172 NA
ATOM      2  C   UNL     1     -15.793   1.646  -6.211  0.00  0.00    +0.094 A 
ATOM      3  C   UNL     1     -15.446   1.489  -7.587  0.00  0.00    +0.073 A 
ATOM      4  C   UNL     1     -16.325   2.279  -8.289  0.00  0.00    +0.121 A 
ATOM      5  N   UNL     1     -17.129   2.855  -7.346  0.00  0.00    -0.263 N 
ATOM      6  H   UNL     1     -17.893   3.503  -7.519  0.00  0.00    +0.190 HD
ENDROOT
BRANCH   2   7
ATOM      7  C   UNL     1     -15.166   1.021  -5.038  0.00  0.00    +0.002 A 
ATOM      8  C   UNL     1     -15.677  -0.180  -4.516  0.00  0.00    +0.010 A 
ATOM      9  C   UNL     1     -15.092  -0.786  -3.401  0.00  0.00    +0.001 A 
ATOM     10  C   UNL     1     -13.986  -0.202  -2.790  0.00  0.00    +0.000 A 
ATOM     11  C   UNL     1     -13.465   0.988  -3.294  0.00  0.00    +0.001 A 
ATOM     12  C   UNL     1     -14.051   1.595  -4.410  0.00  0.00    +0.010 A 
ENDBRANCH   2   7
BRANCH   4  13
ATOM     13  N   UNL     1     -16.430   2.493  -9.650  0.00  0.00    -0.267 N 
ATOM     14  H   UNL     1     -16.629   1.686 -10.221  0.00  0.00    +0.157 HD
ATOM     15  C   UNL     1     -16.271   3.757 -10.199  0.00  0.00    +0.249 C 
ATOM     16  O   UNL     1     -16.030   4.761  -9.530  0.00  0.00    -0.270 OA
BRANCH  15  17
ATOM     17  C   UNL     1     -16.404   3.889 -11.688  0.00  0.00    +0.037 A 
ATOM     18  C   UNL     1     -15.691   4.820 -12.459  0.00  0.00    +0.014 A 
ATOM     19  C   UNL     1     -15.874   4.878 -13.846  0.00  0.00    +0.021 A 
ATOM     20  C   UNL     1     -16.765   4.009 -14.473  0.00  0.00    +0.041 A 
ATOM     21 CL   UNL     1     -16.983   4.089 -16.176  0.00  0.00    -0.084 Cl
ATOM     22  C   UNL     1     -17.480   3.081 -13.724  0.00  0.00    +0.021 A 
ATOM     23  C   UNL     1     -17.299   3.021 -12.338  0.00  0.00    +0.014 A 
ENDBRANCH  15  17
ENDBRANCH   4  13
TORSDOF 3
ENDMDL
MODEL 5
REMARK VINA RESULT:      -7.2      9.800     10.536
REMARK  Name = min_compound934.pdb
REMARK  3 active torsions:
REMARK  status: ('A' for Active; 'I' for Inactive)
REMARK    1  A    between atoms: _3  and  _16
REMARK    2  A    between atoms: _5  and  _22
REMARK    3  A    between atoms: _7  and  _9
REMARK                            x       y       z     vdW  Elec       q    Type
REMARK                         _______ _______ _______ _____ _____    ______ ____
ROOT
ATOM      1  N   UNL     1     -16.832   2.490  -6.072  0.00  0.00    -0.172 NA
ATOM      2  C   UNL     1     -15.812   1.622  -6.195  0.00  0.00    +0.094 A 
ATOM      3  C   UNL     1     -15.477   1.446  -7.571  0.00  0.00    +0.073 A 
ATOM      4  C   UNL     1     -16.342   2.248  -8.275  0.00  0.00    +0.121 A 
ATOM      5  N   UNL     1     -17.129   2.849  -7.332  0.00  0.00    -0.263 N 
ATOM      6  H   UNL     1     -17.881   3.511  -7.506  0.00  0.00    +0.190 HD
ENDROOT
BRANCH   2   7
ATOM      7  C   UNL     1     -15.191   0.994  -5.020  0.00  0.00    +0.002 A 
ATOM      8  C   UNL     1     -14.046   1.560  -4.434  0.00  0.00    +0.010 A 
ATOM      9  C   UNL     1     -13.445   0.974  -3.317  0.00  0.00    +0.001 A 
ATOM     10  C   UNL     1     -13.979  -0.188  -2.767  0.00  0.00    +0.000 A 
ATOM     11  C   UNL     1     -15.114  -0.764  -3.334  0.00  0.00    +0.001 A 
ATOM     12  C   UNL     1     -15.716  -0.177  -4.453  0.00  0.00    +0.010 A 
ENDBRANCH   2   7
BRANCH   4  13
ATOM     13  N   UNL     1     -16.452   2.453  -9.638  0.00  0.00    -0.267 N 
ATOM     14  H   UNL     1     -16.632   1.637 -10.204  0.00  0.00    +0.157 HD
ATOM     15  C   UNL     1     -16.321   3.717 -10.193  0.00  0.00    +0.249 C 
ATOM     16  O   UNL     1     -16.104   4.729  -9.529  0.00  0.00    -0.270 OA
BRANCH  15  17
ATOM     17  C   UNL     1     -16.456   3.837 -11.683  0.00  0.00    +0.037 A 
ATOM     18  C   UNL     1     -17.259   2.995 -12.467  0.00  0.00    +0.014 A 
ATOM     19  C   UNL     1     -17.328   3.176 -13.855  0.00  0.00    +0.021 A 
ATOM     20  C   UNL     1     -16.600   4.193 -14.467  0.00  0.00    +0.041 A 
ATOM     21 CL   UNL     1     -16.692   4.405 -16.170  0.00  0.00    -0.084 Cl
ATOM     22  C   UNL     1     -15.799   5.036 -13.704  0.00  0.00    +0.021 A 
ATOM     23  C   UNL     1     -15.727   4.858 -12.319  0.00  0.00    +0.014 A 
ENDBRANCH  15  17
ENDBRANCH   4  13
TORSDOF 3
ENDMDL
MODEL 6
REMARK VINA RESULT:      -7.2     11.931     13.667
REMARK  Name = min_compound934.pdb
REMARK  3 active torsions:
REMARK  status: ('A' for Active; 'I' for Inactive)
REMARK    1  A    between atoms: _3  and  _16
REMARK    2  A    between atoms: _5  and  _22
REMARK    3  A    between atoms: _7  and  _9
REMARK                            x       y       z     vdW  Elec       q    Type
REMARK                         _______ _______ _______ _____ _____    ______ ____
ROOT
ATOM      1  N   UNL     1     -17.251   3.763  -8.045  0.00  0.00    -0.172 NA
ATOM      2  C   UNL     1     -16.550   3.037  -8.934  0.00  0.00    +0.094 A 
ATOM      3  C   UNL     1     -16.058   1.846  -8.319  0.00  0.00    +0.073 A 
ATOM      4  C   UNL     1     -16.493   1.887  -7.017  0.00  0.00    +0.121 A 
ATOM      5  N   UNL     1     -17.201   3.052  -6.907  0.00  0.00    -0.263 N 
ATOM      6  H   UNL     1     -17.666   3.398  -6.072  0.00  0.00    +0.190 HD
ENDROOT
BRANCH   2   7
ATOM      7  C   UNL     1     -16.370   3.485 -10.323  0.00  0.00    +0.002 A 
ATOM      8  C   UNL     1     -17.180   2.966 -11.346  0.00  0.00    +0.010 A 
ATOM      9  C   UNL     1     -17.021   3.382 -12.671  0.00  0.00    +0.001 A 
ATOM     10  C   UNL     1     -16.049   4.325 -12.993  0.00  0.00    +0.000 A 
ATOM     11  C   UNL     1     -15.236   4.851 -11.991  0.00  0.00    +0.001 A 
ATOM     12  C   UNL     1     -15.395   4.434 -10.665  0.00  0.00    +0.010 A 
ENDBRANCH   2   7
BRANCH   4  13
ATOM     13  N   UNL     1     -16.299   0.985  -5.988  0.00  0.00    -0.267 N 
ATOM     14  H   UNL     1     -16.502   0.018  -6.191  0.00  0.00    +0.157 HD
ATOM     15  C   UNL     1     -15.845   1.393  -4.742  0.00  0.00    +0.249 C 
ATOM     16  O   UNL     1     -15.587   2.563  -4.466  0.00  0.00    -0.270 OA
BRANCH  15  17
ATOM     17  C   UNL     1     -15.666   0.338  -3.690  0.00  0.00    +0.037 A 
ATOM     18  C   UNL     1     -14.420  -0.181  -3.307  0.00  0.00    +0.014 A 
ATOM     19  C   UNL     1     -14.339  -1.166  -2.314  0.00  0.00    +0.021 A 
ATOM     20  C   UNL     1     -15.497  -1.639  -1.699  0.00  0.00    +0.041 A 
ATOM     21 CL   UNL     1     -15.387  -2.848  -0.483  0.00  0.00    -0.084 Cl
ATOM     22  C   UNL     1     -16.739  -1.135  -2.068  0.00  0.00    +0.021 A 
ATOM     23  C   UNL     1     -16.823  -0.152  -3.059  0.00  0.00    +0.014 A 
ENDBRANCH  15  17
ENDBRANCH   4  13
TORSDOF 3
ENDMDL
MODEL 7
REMARK VINA RESULT:      -7.0      8.204     10.652
REMARK  Name = min_compound934.pdb
REMARK  3 active torsions:
REMARK  status: ('A' for Active; 'I' for Inactive)
REMARK    1  A    between atoms: _3  and  _16
REMARK    2  A    between atoms: _5  and  _22
REMARK    3  A    between atoms: _7  and  _9
REMARK                            x       y       z     vdW  Elec       q    Type
REMARK                         _______ _______ _______ _____ _____    ______ ____
ROOT
ATOM      1  N   UNL     1     -16.832   6.166 -11.556  0.00  0.00    -0.172 NA
ATOM      2  C   UNL     1     -15.898   5.721 -12.415  0.00  0.00    +0.094 A 
ATOM      3  C   UNL     1     -15.228   4.584 -11.870  0.00  0.00    +0.073 A 
ATOM      4  C   UNL     1     -15.800   4.363 -10.641  0.00  0.00    +0.121 A 
ATOM      5  N   UNL     1     -16.752   5.335 -10.504  0.00  0.00    -0.263 N 
ATOM      6  H   UNL     1     -17.369   5.467  -9.706  0.00  0.00    +0.190 HD
ENDROOT
BRANCH   2   7
ATOM      7  C   UNL     1     -15.670   6.376 -13.711  0.00  0.00    +0.002 A 
ATOM      8  C   UNL     1     -15.455   5.607 -14.867  0.00  0.00    +0.010 A 
ATOM      9  C   UNL     1     -15.237   6.215 -16.106  0.00  0.00    +0.001 A 
ATOM     10  C   UNL     1     -15.231   7.603 -16.209  0.00  0.00    +0.000 A 
ATOM     11  C   UNL     1     -15.443   8.383 -15.074  0.00  0.00    +0.001 A 
ATOM     12  C   UNL     1     -15.661   7.773 -13.833  0.00  0.00    +0.010 A 
ENDBRANCH   2   7
BRANCH   4  13
ATOM     13  N   UNL     1     -15.527   3.391  -9.697  0.00  0.00    -0.267 N 
ATOM     14  H   UNL     1     -14.581   3.352  -9.350  0.00  0.00    +0.157 HD
ATOM     15  C   UNL     1     -16.508   2.516  -9.252  0.00  0.00    +0.249 C 
ATOM     16  O   UNL     1     -17.670   2.541  -9.655  0.00  0.00    -0.270 OA
BRANCH  15  17
ATOM     17  C   UNL     1     -16.112   1.495  -8.226  0.00  0.00    +0.037 A 
ATOM     18  C   UNL     1     -16.910   0.398  -7.866  0.00  0.00    +0.014 A 
ATOM     19  C   UNL     1     -16.466  -0.511  -6.897  0.00  0.00    +0.021 A 
ATOM     20  C   UNL     1     -15.229  -0.332  -6.283  0.00  0.00    +0.041 A 
ATOM     21 CL   UNL     1     -14.694  -1.453  -5.094  0.00  0.00    -0.084 Cl
ATOM     22  C   UNL     1     -14.427   0.750  -6.627  0.00  0.00    +0.021 A 
ATOM     23  C   UNL     1     -14.867   1.659  -7.594  0.00  0.00    +0.014 A 
ENDBRANCH  15  17
ENDBRANCH   4  13
TORSDOF 3
ENDMDL
MODEL 8
REMARK VINA RESULT:      -6.9      3.601      8.864
REMARK  Name = min_compound934.pdb
REMARK  3 active torsions:
REMARK  status: ('A' for Active; 'I' for Inactive)
REMARK    1  A    between atoms: _3  and  _16
REMARK    2  A    between atoms: _5  and  _22
REMARK    3  A    between atoms: _7  and  _9
REMARK                            x       y       z     vdW  Elec       q    Type
REMARK                         _______ _______ _______ _____ _____    ______ ____
ROOT
ATOM      1  N   UNL     1     -14.725   7.206 -18.545  0.00  0.00    -0.172 NA
ATOM      2  C   UNL     1     -14.948   7.472 -17.246  0.00  0.00    +0.094 A 
ATOM      3  C   UNL     1     -14.472   6.400 -16.433  0.00  0.00    +0.073 A 
ATOM      4  C   UNL     1     -13.950   5.471 -17.301  0.00  0.00    +0.121 A 
ATOM      5  N   UNL     1     -14.126   6.003 -18.549  0.00  0.00    -0.263 N 
ATOM      6  H   UNL     1     -13.852   5.576 -19.430  0.00  0.00    +0.190 HD
ENDROOT
BRANCH   2   7
ATOM      7  C   UNL     1     -15.597   8.720 -16.817  0.00  0.00    +0.002 A 
ATOM      8  C   UNL     1     -16.216   9.558 -17.760  0.00  0.00    +0.010 A 
ATOM      9  C   UNL     1     -16.837  10.747 -17.368  0.00  0.00    +0.001 A 
ATOM     10  C   UNL     1     -16.849  11.117 -16.026  0.00  0.00    +0.000 A 
ATOM     11  C   UNL     1     -16.241  10.298 -15.076  0.00  0.00    +0.001 A 
ATOM     12  C   UNL     1     -15.619   9.108 -15.469  0.00  0.00    +0.010 A 
ENDBRANCH   2   7
BRANCH   4  13
ATOM     13  N   UNL     1     -13.361   4.249 -17.043  0.00  0.00    -0.267 N 
ATOM     14  H   UNL     1     -13.941   3.552 -16.602  0.00  0.00    +0.157 HD
ATOM     15  C   UNL     1     -12.038   3.997 -17.377  0.00  0.00    +0.249 C 
ATOM     16  O   UNL     1     -11.307   4.825 -17.917  0.00  0.00    -0.270 OA
BRANCH  15  17
ATOM     17  C   UNL     1     -11.488   2.638 -17.055  0.00  0.00    +0.037 A 
ATOM     18  C   UNL     1     -11.621   1.521 -17.894  0.00  0.00    +0.014 A 
ATOM     19  C   UNL     1     -11.076   0.286 -17.518  0.00  0.00    +0.021 A 
ATOM     20  C   UNL     1     -10.399   0.158 -16.308  0.00  0.00    +0.041 A 
ATOM     21 CL   UNL     1      -9.736  -1.363 -15.856  0.00  0.00    -0.084 Cl
ATOM     22  C   UNL     1     -10.259   1.254 -15.465  0.00  0.00    +0.021 A 
ATOM     23  C   UNL     1     -10.801   2.489 -15.837  0.00  0.00    +0.014 A 
ENDBRANCH  15  17
ENDBRANCH   4  13
TORSDOF 3
ENDMDL
MODEL 9
REMARK VINA RESULT:      -6.8      5.101      8.969
REMARK  Name = min_compound934.pdb
REMARK  3 active torsions:
REMARK  status: ('A' for Active; 'I' for Inactive)
REMARK    1  A    between atoms: _3  and  _16
REMARK    2  A    between atoms: _5  and  _22
REMARK    3  A    between atoms: _7  and  _9
REMARK                            x       y       z     vdW  Elec       q    Type
REMARK                         _______ _______ _______ _____ _____    ______ ____
ROOT
ATOM      1  N   UNL     1     -16.073   6.063 -14.324  0.00  0.00    -0.172 NA
ATOM      2  C   UNL     1     -16.126   5.500 -13.104  0.00  0.00    +0.094 A 
ATOM      3  C   UNL     1     -15.366   4.293 -13.084  0.00  0.00    +0.073 A 
ATOM      4  C   UNL     1     -14.850   4.151 -14.350  0.00  0.00    +0.121 A 
ATOM      5  N   UNL     1     -15.303   5.236 -15.049  0.00  0.00    -0.263 N 
ATOM      6  H   UNL     1     -15.109   5.448 -16.024  0.00  0.00    +0.190 HD
ENDROOT
BRANCH   2   7
ATOM      7  C   UNL     1     -16.886   6.115 -12.005  0.00  0.00    +0.002 A 
ATOM      8  C   UNL     1     -18.041   6.867 -12.275  0.00  0.00    +0.010 A 
ATOM      9  C   UNL     1     -18.774   7.457 -11.242  0.00  0.00    +0.001 A 
ATOM     10  C   UNL     1     -18.362   7.305  -9.921  0.00  0.00    +0.000 A 
ATOM     11  C   UNL     1     -17.218   6.562  -9.633  0.00  0.00    +0.001 A 
ATOM     12  C   UNL     1     -16.485   5.971 -10.669  0.00  0.00    +0.010 A 
ENDBRANCH   2   7
BRANCH   4  13
ATOM     13  N   UNL     1     -14.043   3.159 -14.873  0.00  0.00    -0.267 N 
ATOM     14  H   UNL     1     -14.176   2.229 -14.507  0.00  0.00    +0.157 HD
ATOM     15  C   UNL     1     -13.099   3.433 -15.852  0.00  0.00    +0.249 C 
ATOM     16  O   UNL     1     -12.915   4.556 -16.319  0.00  0.00    -0.270 OA
BRANCH  15  17
ATOM     17  C   UNL     1     -12.270   2.288 -16.357  0.00  0.00    +0.037 A 
ATOM     18  C   UNL     1     -12.750   0.977 -16.498  0.00  0.00    +0.014 A 
ATOM     19  C   UNL     1     -11.908  -0.035 -16.977  0.00  0.00    +0.021 A 
ATOM     20  C   UNL     1     -10.588   0.252 -17.317  0.00  0.00    +0.041 A 
ATOM     21 CL   UNL     1      -9.564  -0.998 -17.902  0.00  0.00    -0.084 Cl
ATOM     22  C   UNL     1     -10.097   1.546 -17.181  0.00  0.00    +0.021 A 
ATOM     23  C   UNL     1     -10.935   2.559 -16.703  0.00  0.00    +0.014 A 
ENDBRANCH  15  17
ENDBRANCH   4  13
TORSDOF 3
ENDMDL
