MODEL 1
REMARK VINA RESULT:      -5.4      0.000      0.000
REMARK  Name = min_compound97.pdb
REMARK  4 active torsions:
REMARK  status: ('A' for Active; 'I' for Inactive)
REMARK    1  A    between atoms: _5  and  _12
REMARK    2  A    between atoms: _5  and  _14
REMARK    3  A    between atoms: _9  and  _10
REMARK    4  A    between atoms: _14  and  _15
REMARK                            x       y       z     vdW  Elec       q    Type
REMARK                         _______ _______ _______ _____ _____    ______ ____
ROOT
ATOM      1  C   UNL     1     -13.920   0.110  -6.031  0.00  0.00    +0.074 C 
ATOM      2  C   UNL     1     -14.774  -0.921  -5.975  0.00  0.00    +0.245 C 
ATOM      3  O   UNL     1     -15.821  -1.007  -6.894  0.00  0.00    -0.269 OA
ATOM      4  O   UNL     1     -16.403   0.344  -7.089  0.00  0.00    -0.247 OA
ATOM      5  C   UNL     1     -15.402   1.208  -7.538  0.00  0.00    +0.332 C 
ATOM      6  C   UNL     1     -14.173   1.136  -7.007  0.00  0.00    +0.096 C 
ENDROOT
BRANCH   2   7
ATOM      7  N   UNL     1     -14.592  -1.953  -5.093  0.00  0.00    -0.237 N 
ATOM      8  H   UNL     1     -14.028  -2.731  -5.398  0.00  0.00    +0.159 HD
ATOM      9  C   UNL     1     -14.932  -1.956  -3.768  0.00  0.00    +0.304 C 
ATOM     10  O   UNL     1     -15.411  -1.044  -3.113  0.00  0.00    -0.253 OA
ATOM     11  N   UNL     1     -14.651  -3.151  -3.173  0.00  0.00    -0.313 N 
ATOM     12  H   UNL     1     -14.865  -3.986  -3.700  0.00  0.00    +0.146 HD
ATOM     13  H   UNL     1     -14.969  -3.181  -2.212  0.00  0.00    +0.146 HD
ENDBRANCH   2   7
BRANCH   5  14
ATOM     14  O   UNL     1     -15.723   2.255  -8.376  0.00  0.00    -0.457 OA
BRANCH  14  15
ATOM     15  C   UNL     1     -16.971   2.055  -9.040  0.00  0.00    +0.259 C 
BRANCH  15  16
ATOM     16  C   UNL     1     -16.999   2.951 -10.245  0.00  0.00    +0.006 C 
ATOM     17  C   UNL     1     -16.104   3.913 -10.506  0.00  0.00    +0.007 C 
ENDBRANCH  15  16
ENDBRANCH  14  15
ENDBRANCH   5  14
TORSDOF 4
ENDMDL
MODEL 2
REMARK VINA RESULT:      -5.4     11.183     11.986
REMARK  Name = min_compound97.pdb
REMARK  4 active torsions:
REMARK  status: ('A' for Active; 'I' for Inactive)
REMARK    1  A    between atoms: _5  and  _12
REMARK    2  A    between atoms: _5  and  _14
REMARK    3  A    between atoms: _9  and  _10
REMARK    4  A    between atoms: _14  and  _15
REMARK                            x       y       z     vdW  Elec       q    Type
REMARK                         _______ _______ _______ _____ _____    ______ ____
ROOT
ATOM      1  C   UNL     1     -10.342   3.361 -15.938  0.00  0.00    +0.074 C 
ATOM      2  C   UNL     1     -11.010   2.269 -16.334  0.00  0.00    +0.245 C 
ATOM      3  O   UNL     1     -12.009   2.379 -17.302  0.00  0.00    -0.269 OA
ATOM      4  O   UNL     1     -12.808   3.601 -17.033  0.00  0.00    -0.247 OA
ATOM      5  C   UNL     1     -11.958   4.710 -17.051  0.00  0.00    +0.332 C 
ATOM      6  C   UNL     1     -10.746   4.628 -16.486  0.00  0.00    +0.096 C 
ENDROOT
BRANCH   2   7
ATOM      7  N   UNL     1     -10.672   1.021 -15.882  0.00  0.00    -0.237 N 
ATOM      8  H   UNL     1     -11.235   0.625 -15.145  0.00  0.00    +0.159 HD
ATOM      9  C   UNL     1      -9.769   0.169 -16.456  0.00  0.00    +0.304 C 
ATOM     10  O   UNL     1      -9.135   0.328 -17.487  0.00  0.00    -0.253 OA
ATOM     11  N   UNL     1      -9.633  -0.985 -15.741  0.00  0.00    -0.313 N 
ATOM     12  H   UNL     1      -9.601  -0.899 -14.735  0.00  0.00    +0.146 HD
ATOM     13  H   UNL     1      -8.912  -1.586 -16.123  0.00  0.00    +0.146 HD
ENDBRANCH   2   7
BRANCH   5  14
ATOM     14  O   UNL     1     -12.436   5.934 -17.468  0.00  0.00    -0.457 OA
BRANCH  14  15
ATOM     15  C   UNL     1     -12.612   5.995 -18.884  0.00  0.00    +0.259 C 
BRANCH  15  16
ATOM     16  C   UNL     1     -11.734   7.094 -19.410  0.00  0.00    +0.006 C 
ATOM     17  C   UNL     1     -11.324   7.205 -20.680  0.00  0.00    +0.007 C 
ENDBRANCH  15  16
ENDBRANCH  14  15
ENDBRANCH   5  14
TORSDOF 4
ENDMDL
MODEL 3
REMARK VINA RESULT:      -5.2     11.274     12.747
REMARK  Name = min_compound97.pdb
REMARK  4 active torsions:
REMARK  status: ('A' for Active; 'I' for Inactive)
REMARK    1  A    between atoms: _5  and  _12
REMARK    2  A    between atoms: _5  and  _14
REMARK    3  A    between atoms: _9  and  _10
REMARK    4  A    between atoms: _14  and  _15
REMARK                            x       y       z     vdW  Elec       q    Type
REMARK                         _______ _______ _______ _____ _____    ______ ____
ROOT
ATOM      1  C   UNL     1     -10.809   4.130 -16.402  0.00  0.00    +0.074 C 
ATOM      2  C   UNL     1     -11.718   4.358 -17.359  0.00  0.00    +0.245 C 
ATOM      3  O   UNL     1     -12.663   3.379 -17.669  0.00  0.00    -0.269 OA
ATOM      4  O   UNL     1     -11.998   2.052 -17.670  0.00  0.00    -0.247 OA
ATOM      5  C   UNL     1     -11.428   1.831 -16.414  0.00  0.00    +0.332 C 
ATOM      6  C   UNL     1     -10.804   2.833 -15.780  0.00  0.00    +0.096 C 
ENDROOT
BRANCH   2   7
ATOM      7  N   UNL     1     -11.808   5.574 -17.984  0.00  0.00    -0.237 N 
ATOM      8  H   UNL     1     -11.209   5.735 -18.779  0.00  0.00    +0.159 HD
ATOM      9  C   UNL     1     -12.764   6.528 -17.764  0.00  0.00    +0.304 C 
ATOM     10  O   UNL     1     -13.731   6.467 -17.021  0.00  0.00    -0.253 OA
ATOM     11  N   UNL     1     -12.553   7.644 -18.521  0.00  0.00    -0.313 N 
ATOM     12  H   UNL     1     -11.600   7.966 -18.604  0.00  0.00    +0.146 HD
ATOM     13  H   UNL     1     -13.216   8.379 -18.307  0.00  0.00    +0.146 HD
ENDBRANCH   2   7
BRANCH   5  14
ATOM     14  O   UNL     1     -11.335   0.547 -15.920  0.00  0.00    -0.457 OA
BRANCH  14  15
ATOM     15  C   UNL     1     -10.020   0.235 -15.462  0.00  0.00    +0.259 C 
BRANCH  15  16
ATOM     16  C   UNL     1      -9.470  -0.851 -16.343  0.00  0.00    +0.006 C 
ATOM     17  C   UNL     1      -9.677  -0.944 -17.663  0.00  0.00    +0.007 C 
ENDBRANCH  15  16
ENDBRANCH  14  15
ENDBRANCH   5  14
TORSDOF 4
ENDMDL
MODEL 4
REMARK VINA RESULT:      -5.2     11.351     11.672
REMARK  Name = min_compound97.pdb
REMARK  4 active torsions:
REMARK  status: ('A' for Active; 'I' for Inactive)
REMARK    1  A    between atoms: _5  and  _12
REMARK    2  A    between atoms: _5  and  _14
REMARK    3  A    between atoms: _9  and  _10
REMARK    4  A    between atoms: _14  and  _15
REMARK                            x       y       z     vdW  Elec       q    Type
REMARK                         _______ _______ _______ _____ _____    ______ ____
ROOT
ATOM      1  C   UNL     1     -10.392   3.371 -15.824  0.00  0.00    +0.074 C 
ATOM      2  C   UNL     1     -10.872   2.270 -16.418  0.00  0.00    +0.245 C 
ATOM      3  O   UNL     1     -11.590   2.380 -17.610  0.00  0.00    -0.269 OA
ATOM      4  O   UNL     1     -12.499   3.550 -17.517  0.00  0.00    -0.247 OA
ATOM      5  C   UNL     1     -11.739   4.696 -17.273  0.00  0.00    +0.332 C 
ATOM      6  C   UNL     1     -10.712   4.643 -16.414  0.00  0.00    +0.096 C 
ENDROOT
BRANCH   2   7
ATOM      7  N   UNL     1     -10.592   1.018 -15.937  0.00  0.00    -0.237 N 
ATOM      8  H   UNL     1     -11.175   0.664 -15.194  0.00  0.00    +0.159 HD
ATOM      9  C   UNL     1      -9.726   0.114 -16.487  0.00  0.00    +0.304 C 
ATOM     10  O   UNL     1      -9.082   0.221 -17.519  0.00  0.00    -0.253 OA
ATOM     11  N   UNL     1      -9.645  -1.029 -15.746  0.00  0.00    -0.313 N 
ATOM     12  H   UNL     1      -9.614  -0.922 -14.742  0.00  0.00    +0.146 HD
ATOM     13  H   UNL     1      -8.951  -1.670 -16.111  0.00  0.00    +0.146 HD
ENDBRANCH   2   7
BRANCH   5  14
ATOM     14  O   UNL     1     -12.161   5.915 -17.759  0.00  0.00    -0.457 OA
BRANCH  14  15
ATOM     15  C   UNL     1     -13.516   6.199 -17.411  0.00  0.00    +0.259 C 
BRANCH  15  16
ATOM     16  C   UNL     1     -13.789   7.636 -17.756  0.00  0.00    +0.006 C 
ATOM     17  C   UNL     1     -14.864   8.328 -17.358  0.00  0.00    +0.007 C 
ENDBRANCH  15  16
ENDBRANCH  14  15
ENDBRANCH   5  14
TORSDOF 4
ENDMDL
MODEL 5
REMARK VINA RESULT:      -5.1      9.283     11.205
REMARK  Name = min_compound97.pdb
REMARK  4 active torsions:
REMARK  status: ('A' for Active; 'I' for Inactive)
REMARK    1  A    between atoms: _5  and  _12
REMARK    2  A    between atoms: _5  and  _14
REMARK    3  A    between atoms: _9  and  _10
REMARK    4  A    between atoms: _14  and  _15
REMARK                            x       y       z     vdW  Elec       q    Type
REMARK                         _______ _______ _______ _____ _____    ______ ____
ROOT
ATOM      1  C   UNL     1     -12.578   3.473 -15.573  0.00  0.00    +0.074 C 
ATOM      2  C   UNL     1     -13.816   3.638 -16.059  0.00  0.00    +0.245 C 
ATOM      3  O   UNL     1     -14.344   2.701 -16.948  0.00  0.00    -0.269 OA
ATOM      4  O   UNL     1     -13.287   2.300 -17.910  0.00  0.00    -0.247 OA
ATOM      5  C   UNL     1     -12.205   1.774 -17.199  0.00  0.00    +0.332 C 
ATOM      6  C   UNL     1     -11.813   2.355 -16.058  0.00  0.00    +0.096 C 
ENDROOT
BRANCH   2   7
ATOM      7  N   UNL     1     -14.621   4.660 -15.631  0.00  0.00    -0.237 N 
ATOM      8  H   UNL     1     -14.883   5.361 -16.307  0.00  0.00    +0.159 HD
ATOM      9  C   UNL     1     -15.270   4.731 -14.429  0.00  0.00    +0.304 C 
ATOM     10  O   UNL     1     -15.297   3.895 -13.539  0.00  0.00    -0.253 OA
ATOM     11  N   UNL     1     -15.964   5.897 -14.293  0.00  0.00    -0.313 N 
ATOM     12  H   UNL     1     -15.511   6.740 -14.615  0.00  0.00    +0.146 HD
ATOM     13  H   UNL     1     -16.385   5.984 -13.376  0.00  0.00    +0.146 HD
ENDBRANCH   2   7
BRANCH   5  14
ATOM     14  O   UNL     1     -11.426   0.788 -17.767  0.00  0.00    -0.457 OA
BRANCH  14  15
ATOM     15  C   UNL     1     -10.032   1.001 -17.543  0.00  0.00    +0.259 C 
BRANCH  15  16
ATOM     16  C   UNL     1      -9.445  -0.287 -17.040  0.00  0.00    +0.006 C 
ATOM     17  C   UNL     1      -9.717  -0.840 -15.851  0.00  0.00    +0.007 C 
ENDBRANCH  15  16
ENDBRANCH  14  15
ENDBRANCH   5  14
TORSDOF 4
ENDMDL
MODEL 6
REMARK VINA RESULT:      -5.0      2.314      3.207
REMARK  Name = min_compound97.pdb
REMARK  4 active torsions:
REMARK  status: ('A' for Active; 'I' for Inactive)
REMARK    1  A    between atoms: _5  and  _12
REMARK    2  A    between atoms: _5  and  _14
REMARK    3  A    between atoms: _9  and  _10
REMARK    4  A    between atoms: _14  and  _15
REMARK                            x       y       z     vdW  Elec       q    Type
REMARK                         _______ _______ _______ _____ _____    ______ ____
ROOT
ATOM      1  C   UNL     1     -14.263   0.050  -3.240  0.00  0.00    +0.074 C 
ATOM      2  C   UNL     1     -14.634  -1.225  -3.065  0.00  0.00    +0.245 C 
ATOM      3  O   UNL     1     -14.562  -2.123  -4.131  0.00  0.00    -0.269 OA
ATOM      4  O   UNL     1     -15.030  -1.444  -5.365  0.00  0.00    -0.247 OA
ATOM      5  C   UNL     1     -14.235  -0.319  -5.592  0.00  0.00    +0.332 C 
ATOM      6  C   UNL     1     -13.869   0.457  -4.562  0.00  0.00    +0.096 C 
ENDROOT
BRANCH   2   7
ATOM      7  N   UNL     1     -14.998  -1.701  -1.833  0.00  0.00    -0.237 N 
ATOM      8  H   UNL     1     -15.870  -1.375  -1.446  0.00  0.00    +0.159 HD
ATOM      9  C   UNL     1     -14.398  -2.724  -1.151  0.00  0.00    +0.304 C 
ATOM     10  O   UNL     1     -13.472  -3.430  -1.517  0.00  0.00    -0.253 OA
ATOM     11  N   UNL     1     -14.976  -2.931   0.068  0.00  0.00    -0.313 N 
ATOM     12  H   UNL     1     -15.222  -2.111   0.603  0.00  0.00    +0.146 HD
ATOM     13  H   UNL     1     -14.488  -3.638   0.604  0.00  0.00    +0.146 HD
ENDBRANCH   2   7
BRANCH   5  14
ATOM     14  O   UNL     1     -13.994   0.102  -6.883  0.00  0.00    -0.457 OA
BRANCH  14  15
ATOM     15  C   UNL     1     -14.745   1.266  -7.225  0.00  0.00    +0.259 C 
BRANCH  15  16
ATOM     16  C   UNL     1     -16.142   0.831  -7.564  0.00  0.00    +0.006 C 
ATOM     17  C   UNL     1     -16.452  -0.262  -8.274  0.00  0.00    +0.007 C 
ENDBRANCH  15  16
ENDBRANCH  14  15
ENDBRANCH   5  14
TORSDOF 4
ENDMDL
MODEL 7
REMARK VINA RESULT:      -5.0      3.320      5.616
REMARK  Name = min_compound97.pdb
REMARK  4 active torsions:
REMARK  status: ('A' for Active; 'I' for Inactive)
REMARK    1  A    between atoms: _5  and  _12
REMARK    2  A    between atoms: _5  and  _14
REMARK    3  A    between atoms: _9  and  _10
REMARK    4  A    between atoms: _14  and  _15
REMARK                            x       y       z     vdW  Elec       q    Type
REMARK                         _______ _______ _______ _____ _____    ______ ____
ROOT
ATOM      1  C   UNL     1     -15.934   0.299  -7.613  0.00  0.00    +0.074 C 
ATOM      2  C   UNL     1     -16.753   1.267  -7.181  0.00  0.00    +0.245 C 
ATOM      3  O   UNL     1     -16.641   1.740  -5.872  0.00  0.00    -0.269 OA
ATOM      4  O   UNL     1     -16.413   0.590  -4.962  0.00  0.00    -0.247 OA
ATOM      5  C   UNL     1     -15.255  -0.081  -5.363  0.00  0.00    +0.332 C 
ATOM      6  C   UNL     1     -15.011  -0.268  -6.667  0.00  0.00    +0.096 C 
ENDROOT
BRANCH   2   7
ATOM      7  N   UNL     1     -17.644   1.879  -8.023  0.00  0.00    -0.237 N 
ATOM      8  H   UNL     1     -17.285   2.587  -8.645  0.00  0.00    +0.159 HD
ATOM      9  C   UNL     1     -18.937   1.498  -8.249  0.00  0.00    +0.304 C 
ATOM     10  O   UNL     1     -19.527   0.531  -7.793  0.00  0.00    -0.253 OA
ATOM     11  N   UNL     1     -19.571   2.338  -9.118  0.00  0.00    -0.313 N 
ATOM     12  H   UNL     1     -19.402   3.327  -9.003  0.00  0.00    +0.146 HD
ATOM     13  H   UNL     1     -20.550   2.101  -9.230  0.00  0.00    +0.146 HD
ENDBRANCH   2   7
BRANCH   5  14
ATOM     14  O   UNL     1     -14.472  -0.717  -4.423  0.00  0.00    -0.457 OA
BRANCH  14  15
ATOM     15  C   UNL     1     -14.325   0.050  -3.229  0.00  0.00    +0.259 C 
BRANCH  15  16
ATOM     16  C   UNL     1     -13.316   1.131  -3.496  0.00  0.00    +0.006 C 
ATOM     17  C   UNL     1     -13.593   2.441  -3.549  0.00  0.00    +0.007 C 
ENDBRANCH  15  16
ENDBRANCH  14  15
ENDBRANCH   5  14
TORSDOF 4
ENDMDL
MODEL 8
REMARK VINA RESULT:      -4.8     10.703     11.989
REMARK  Name = min_compound97.pdb
REMARK  4 active torsions:
REMARK  status: ('A' for Active; 'I' for Inactive)
REMARK    1  A    between atoms: _5  and  _12
REMARK    2  A    between atoms: _5  and  _14
REMARK    3  A    between atoms: _9  and  _10
REMARK    4  A    between atoms: _14  and  _15
REMARK                            x       y       z     vdW  Elec       q    Type
REMARK                         _______ _______ _______ _____ _____    ______ ____
ROOT
ATOM      1  C   UNL     1     -11.991   4.594 -16.637  0.00  0.00    +0.074 C 
ATOM      2  C   UNL     1     -13.201   4.064 -16.410  0.00  0.00    +0.245 C 
ATOM      3  O   UNL     1     -13.311   2.736 -15.997  0.00  0.00    -0.269 OA
ATOM      4  O   UNL     1     -12.345   1.911 -16.764  0.00  0.00    -0.247 OA
ATOM      5  C   UNL     1     -11.056   2.406 -16.548  0.00  0.00    +0.332 C 
ATOM      6  C   UNL     1     -10.849   3.729 -16.514  0.00  0.00    +0.096 C 
ENDROOT
BRANCH   2   7
ATOM      7  N   UNL     1     -14.338   4.824 -16.479  0.00  0.00    -0.237 N 
ATOM      8  H   UNL     1     -14.305   5.750 -16.080  0.00  0.00    +0.159 HD
ATOM      9  C   UNL     1     -15.461   4.537 -17.205  0.00  0.00    +0.304 C 
ATOM     10  O   UNL     1     -15.650   3.592 -17.955  0.00  0.00    -0.253 OA
ATOM     11  N   UNL     1     -16.434   5.478 -17.032  0.00  0.00    -0.313 N 
ATOM     12  H   UNL     1     -16.575   5.823 -16.094  0.00  0.00    +0.146 HD
ATOM     13  H   UNL     1     -17.292   5.230 -17.510  0.00  0.00    +0.146 HD
ENDBRANCH   2   7
BRANCH   5  14
ATOM     14  O   UNL     1      -9.979   1.545 -16.567  0.00  0.00    -0.457 OA
BRANCH  14  15
ATOM     15  C   UNL     1     -10.045   0.569 -15.527  0.00  0.00    +0.259 C 
BRANCH  15  16
ATOM     16  C   UNL     1      -9.917  -0.787 -16.159  0.00  0.00    +0.006 C 
ATOM     17  C   UNL     1      -9.813  -1.011 -17.476  0.00  0.00    +0.007 C 
ENDBRANCH  15  16
ENDBRANCH  14  15
ENDBRANCH   5  14
TORSDOF 4
ENDMDL
MODEL 9
REMARK VINA RESULT:      -4.8      1.714      2.185
REMARK  Name = min_compound97.pdb
REMARK  4 active torsions:
REMARK  status: ('A' for Active; 'I' for Inactive)
REMARK    1  A    between atoms: _5  and  _12
REMARK    2  A    between atoms: _5  and  _14
REMARK    3  A    between atoms: _9  and  _10
REMARK    4  A    between atoms: _14  and  _15
REMARK                            x       y       z     vdW  Elec       q    Type
REMARK                         _______ _______ _______ _____ _____    ______ ____
ROOT
ATOM      1  C   UNL     1     -16.258   0.090  -7.846  0.00  0.00    +0.074 C 
ATOM      2  C   UNL     1     -16.297   0.134  -6.507  0.00  0.00    +0.245 C 
ATOM      3  O   UNL     1     -16.876   1.230  -5.865  0.00  0.00    -0.269 OA
ATOM      4  O   UNL     1     -16.473   2.471  -6.571  0.00  0.00    -0.247 OA
ATOM      5  C   UNL     1     -16.883   2.387  -7.904  0.00  0.00    +0.332 C 
ATOM      6  C   UNL     1     -16.757   1.230  -8.567  0.00  0.00    +0.096 C 
ENDROOT
BRANCH   2   7
ATOM      7  N   UNL     1     -15.868  -0.919  -5.744  0.00  0.00    -0.237 N 
ATOM      8  H   UNL     1     -16.475  -1.721  -5.673  0.00  0.00    +0.159 HD
ATOM      9  C   UNL     1     -14.614  -1.083  -5.223  0.00  0.00    +0.304 C 
ATOM     10  O   UNL     1     -13.638  -0.363  -5.370  0.00  0.00    -0.253 OA
ATOM     11  N   UNL     1     -14.517  -2.222  -4.479  0.00  0.00    -0.313 N 
ATOM     12  H   UNL     1     -15.294  -2.439  -3.871  0.00  0.00    +0.146 HD
ATOM     13  H   UNL     1     -13.612  -2.308  -4.031  0.00  0.00    +0.146 HD
ENDBRANCH   2   7
BRANCH   5  14
ATOM     14  O   UNL     1     -17.231   3.533  -8.588  0.00  0.00    -0.457 OA
BRANCH  14  15
ATOM     15  C   UNL     1     -16.987   3.424  -9.990  0.00  0.00    +0.259 C 
BRANCH  15  16
ATOM     16  C   UNL     1     -16.269   4.667 -10.431  0.00  0.00    +0.006 C 
ATOM     17  C   UNL     1     -15.119   4.685 -11.118  0.00  0.00    +0.007 C 
ENDBRANCH  15  16
ENDBRANCH  14  15
ENDBRANCH   5  14
TORSDOF 4
ENDMDL
