MODEL 1
REMARK VINA RESULT:      -5.6      0.000      0.000
REMARK  Name = min_compound92.pdb
REMARK  1 active torsions:
REMARK  status: ('A' for Active; 'I' for Inactive)
REMARK    1  A    between atoms: _12  and  _13
REMARK                            x       y       z     vdW  Elec       q    Type
REMARK                         _______ _______ _______ _____ _____    ______ ____
ROOT
ATOM      1  O   UNL     1     -12.917  -0.958 -16.302  0.00  0.00    -0.268 OA
ATOM      2  C   UNL     1     -12.060  -0.161 -16.661  0.00  0.00    +0.255 A 
ATOM      3  C   UNL     1     -12.393   1.271 -16.815  0.00  0.00    +0.099 A 
ATOM      4  C   UNL     1     -11.434   2.116 -17.209  0.00  0.00    +0.094 A 
ATOM      5  N   UNL     1     -10.170   1.647 -17.462  0.00  0.00    -0.305 N 
ATOM      6  H   UNL     1      -9.449   2.299 -17.761  0.00  0.00    +0.170 HD
ATOM      7  C   UNL     1      -9.795   0.340 -17.341  0.00  0.00    +0.327 A 
ATOM      8  O   UNL     1      -8.653  -0.037 -17.577  0.00  0.00    -0.247 OA
ATOM      9  N   UNL     1     -10.775  -0.518 -16.939  0.00  0.00    -0.275 N 
ATOM     10  H   UNL     1     -10.523  -1.489 -16.842  0.00  0.00    +0.173 HD
ENDROOT
BRANCH   4  11
ATOM     11  C   UNL     1     -11.627   3.510 -17.393  0.00  0.00    +0.196 A 
ATOM     12  N   UNL     1     -12.505   4.033 -18.304  0.00  0.00    -0.238 N 
ATOM     13  H   UNL     1     -13.127   3.577 -18.959  0.00  0.00    +0.192 HD
ATOM     14  N   UNL     1     -12.480   5.371 -18.261  0.00  0.00    -0.046 NA
ATOM     15  N   UNL     1     -11.590   5.669 -17.327  0.00  0.00    -0.023 NA
ATOM     16  N   UNL     1     -11.053   4.530 -16.780  0.00  0.00    -0.107 NA
ENDBRANCH   4  11
TORSDOF 1
ENDMDL
MODEL 2
REMARK VINA RESULT:      -5.6      0.939      2.413
REMARK  Name = min_compound92.pdb
REMARK  1 active torsions:
REMARK  status: ('A' for Active; 'I' for Inactive)
REMARK    1  A    between atoms: _12  and  _13
REMARK                            x       y       z     vdW  Elec       q    Type
REMARK                         _______ _______ _______ _____ _____    ______ ____
ROOT
ATOM      1  O   UNL     1      -8.711  -0.046 -17.550  0.00  0.00    -0.268 OA
ATOM      2  C   UNL     1      -9.853   0.317 -17.296  0.00  0.00    +0.255 A 
ATOM      3  C   UNL     1     -10.219   1.745 -17.397  0.00  0.00    +0.099 A 
ATOM      4  C   UNL     1     -11.475   2.109 -17.113  0.00  0.00    +0.094 A 
ATOM      5  N   UNL     1     -12.393   1.163 -16.736  0.00  0.00    -0.305 N 
ATOM      6  H   UNL     1     -13.345   1.451 -16.522  0.00  0.00    +0.170 HD
ATOM      7  C   UNL     1     -12.123  -0.170 -16.623  0.00  0.00    +0.327 A 
ATOM      8  O   UNL     1     -12.974  -0.984 -16.283  0.00  0.00    -0.247 OA
ATOM      9  N   UNL     1     -10.842  -0.538 -16.913  0.00  0.00    -0.275 N 
ATOM     10  H   UNL     1     -10.617  -1.517 -16.837  0.00  0.00    +0.173 HD
ENDROOT
BRANCH   4  11
ATOM     11  C   UNL     1     -11.949   3.445 -17.172  0.00  0.00    +0.196 A 
ATOM     12  N   UNL     1     -11.136   4.521 -17.409  0.00  0.00    -0.238 N 
ATOM     13  H   UNL     1     -10.139   4.573 -17.572  0.00  0.00    +0.192 HD
ATOM     14  N   UNL     1     -11.851   5.654 -17.409  0.00  0.00    -0.046 NA
ATOM     15  N   UNL     1     -13.097   5.275 -17.174  0.00  0.00    -0.023 NA
ATOM     16  N   UNL     1     -13.176   3.913 -17.025  0.00  0.00    -0.107 NA
ENDBRANCH   4  11
TORSDOF 1
ENDMDL
MODEL 3
REMARK VINA RESULT:      -5.5      2.491      3.159
REMARK  Name = min_compound92.pdb
REMARK  1 active torsions:
REMARK  status: ('A' for Active; 'I' for Inactive)
REMARK    1  A    between atoms: _12  and  _13
REMARK                            x       y       z     vdW  Elec       q    Type
REMARK                         _______ _______ _______ _____ _____    ______ ____
ROOT
ATOM      1  O   UNL     1     -10.260  -0.484 -15.695  0.00  0.00    -0.268 OA
ATOM      2  C   UNL     1     -10.659   0.614 -16.063  0.00  0.00    +0.255 A 
ATOM      3  C   UNL     1     -11.616   0.720 -17.184  0.00  0.00    +0.099 A 
ATOM      4  C   UNL     1     -12.031   1.935 -17.562  0.00  0.00    +0.094 A 
ATOM      5  N   UNL     1     -11.569   3.050 -16.911  0.00  0.00    -0.305 N 
ATOM      6  H   UNL     1     -11.892   3.968 -17.207  0.00  0.00    +0.170 HD
ATOM      7  C   UNL     1     -10.686   3.024 -15.870  0.00  0.00    +0.327 A 
ATOM      8  O   UNL     1     -10.297   4.045 -15.315  0.00  0.00    -0.247 OA
ATOM      9  N   UNL     1     -10.265   1.784 -15.488  0.00  0.00    -0.275 N 
ATOM     10  H   UNL     1      -9.612   1.738 -14.721  0.00  0.00    +0.173 HD
ENDROOT
BRANCH   4  11
ATOM     11  C   UNL     1     -12.946   2.170 -18.621  0.00  0.00    +0.196 A 
ATOM     12  N   UNL     1     -12.885   1.519 -19.825  0.00  0.00    -0.238 N 
ATOM     13  H   UNL     1     -12.242   0.815 -20.163  0.00  0.00    +0.192 HD
ATOM     14  N   UNL     1     -13.868   1.938 -20.631  0.00  0.00    -0.046 NA
ATOM     15  N   UNL     1     -14.531   2.841 -19.926  0.00  0.00    -0.023 NA
ATOM     16  N   UNL     1     -13.974   2.997 -18.682  0.00  0.00    -0.107 NA
ENDBRANCH   4  11
TORSDOF 1
ENDMDL
MODEL 4
REMARK VINA RESULT:      -5.4      2.611      4.890
REMARK  Name = min_compound92.pdb
REMARK  1 active torsions:
REMARK  status: ('A' for Active; 'I' for Inactive)
REMARK    1  A    between atoms: _12  and  _13
REMARK                            x       y       z     vdW  Elec       q    Type
REMARK                         _______ _______ _______ _____ _____    ______ ____
ROOT
ATOM      1  O   UNL     1     -11.458   5.743 -17.310  0.00  0.00    -0.268 OA
ATOM      2  C   UNL     1     -11.745   4.583 -17.577  0.00  0.00    +0.255 A 
ATOM      3  C   UNL     1     -10.963   3.471 -16.995  0.00  0.00    +0.099 A 
ATOM      4  C   UNL     1     -11.302   2.215 -17.307  0.00  0.00    +0.094 A 
ATOM      5  N   UNL     1     -12.357   1.980 -18.151  0.00  0.00    -0.305 N 
ATOM      6  H   UNL     1     -12.605   1.021 -18.381  0.00  0.00    +0.170 HD
ATOM      7  C   UNL     1     -13.119   2.957 -18.722  0.00  0.00    +0.327 A 
ATOM      8  O   UNL     1     -14.055   2.704 -19.472  0.00  0.00    -0.247 OA
ATOM      9  N   UNL     1     -12.771   4.237 -18.402  0.00  0.00    -0.275 N 
ATOM     10  H   UNL     1     -13.319   4.977 -18.811  0.00  0.00    +0.173 HD
ENDROOT
BRANCH   4  11
ATOM     11  C   UNL     1     -10.633   1.065 -16.815  0.00  0.00    +0.196 A 
ATOM     12  N   UNL     1     -10.577  -0.121 -17.498  0.00  0.00    -0.238 N 
ATOM     13  H   UNL     1     -10.961  -0.386 -18.396  0.00  0.00    +0.192 HD
ATOM     14  N   UNL     1      -9.883  -1.029 -16.800  0.00  0.00    -0.046 NA
ATOM     15  N   UNL     1      -9.514  -0.404 -15.693  0.00  0.00    -0.023 NA
ATOM     16  N   UNL     1      -9.969   0.891 -15.686  0.00  0.00    -0.107 NA
ENDBRANCH   4  11
TORSDOF 1
ENDMDL
MODEL 5
REMARK VINA RESULT:      -5.4      3.042      4.652
REMARK  Name = min_compound92.pdb
REMARK  1 active torsions:
REMARK  status: ('A' for Active; 'I' for Inactive)
REMARK    1  A    between atoms: _12  and  _13
REMARK                            x       y       z     vdW  Elec       q    Type
REMARK                         _______ _______ _______ _____ _____    ______ ____
ROOT
ATOM      1  O   UNL     1     -14.904   4.025 -17.282  0.00  0.00    -0.268 OA
ATOM      2  C   UNL     1     -14.144   3.204 -17.778  0.00  0.00    +0.255 A 
ATOM      3  C   UNL     1     -13.237   2.416 -16.918  0.00  0.00    +0.099 A 
ATOM      4  C   UNL     1     -12.418   1.526 -17.491  0.00  0.00    +0.094 A 
ATOM      5  N   UNL     1     -12.432   1.361 -18.852  0.00  0.00    -0.305 N 
ATOM      6  H   UNL     1     -11.805   0.682 -19.277  0.00  0.00    +0.170 HD
ATOM      7  C   UNL     1     -13.242   2.054 -19.704  0.00  0.00    +0.327 A 
ATOM      8  O   UNL     1     -13.223   1.876 -20.917  0.00  0.00    -0.247 OA
ATOM      9  N   UNL     1     -14.076   2.960 -19.116  0.00  0.00    -0.275 N 
ATOM     10  H   UNL     1     -14.685   3.485 -19.725  0.00  0.00    +0.173 HD
ENDROOT
BRANCH   4  11
ATOM     11  C   UNL     1     -11.502   0.711 -16.777  0.00  0.00    +0.196 A 
ATOM     12  N   UNL     1     -10.466   1.215 -16.037  0.00  0.00    -0.238 N 
ATOM     13  H   UNL     1     -10.177   2.170 -15.870  0.00  0.00    +0.192 HD
ATOM     14  N   UNL     1      -9.768   0.221 -15.474  0.00  0.00    -0.046 NA
ATOM     15  N   UNL     1     -10.372  -0.890 -15.866  0.00  0.00    -0.023 NA
ATOM     16  N   UNL     1     -11.446  -0.605 -16.672  0.00  0.00    -0.107 NA
ENDBRANCH   4  11
TORSDOF 1
ENDMDL
MODEL 6
REMARK VINA RESULT:      -5.4      2.544      4.573
REMARK  Name = min_compound92.pdb
REMARK  1 active torsions:
REMARK  status: ('A' for Active; 'I' for Inactive)
REMARK    1  A    between atoms: _12  and  _13
REMARK                            x       y       z     vdW  Elec       q    Type
REMARK                         _______ _______ _______ _____ _____    ______ ____
ROOT
ATOM      1  O   UNL     1     -14.972   3.240 -16.117  0.00  0.00    -0.268 OA
ATOM      2  C   UNL     1     -13.761   3.251 -16.306  0.00  0.00    +0.255 A 
ATOM      3  C   UNL     1     -12.988   1.994 -16.245  0.00  0.00    +0.099 A 
ATOM      4  C   UNL     1     -11.667   2.040 -16.455  0.00  0.00    +0.094 A 
ATOM      5  N   UNL     1     -11.058   3.240 -16.721  0.00  0.00    -0.305 N 
ATOM      6  H   UNL     1     -10.054   3.263 -16.879  0.00  0.00    +0.170 HD
ATOM      7  C   UNL     1     -11.711   4.436 -16.792  0.00  0.00    +0.327 A 
ATOM      8  O   UNL     1     -11.128   5.487 -17.032  0.00  0.00    -0.247 OA
ATOM      9  N   UNL     1     -13.057   4.385 -16.577  0.00  0.00    -0.275 N 
ATOM     10  H   UNL     1     -13.562   5.256 -16.623  0.00  0.00    +0.173 HD
ENDROOT
BRANCH   4  11
ATOM     11  C   UNL     1     -10.816   0.905 -16.424  0.00  0.00    +0.196 A 
ATOM     12  N   UNL     1     -10.803  -0.051 -17.404  0.00  0.00    -0.238 N 
ATOM     13  H   UNL     1     -11.342  -0.132 -18.256  0.00  0.00    +0.192 HD
ATOM     14  N   UNL     1      -9.906  -1.002 -17.116  0.00  0.00    -0.046 NA
ATOM     15  N   UNL     1      -9.369  -0.632 -15.964  0.00  0.00    -0.023 NA
ATOM     16  N   UNL     1      -9.920   0.545 -15.522  0.00  0.00    -0.107 NA
ENDBRANCH   4  11
TORSDOF 1
ENDMDL
MODEL 7
REMARK VINA RESULT:      -5.3     13.540     14.833
REMARK  Name = min_compound92.pdb
REMARK  1 active torsions:
REMARK  status: ('A' for Active; 'I' for Inactive)
REMARK    1  A    between atoms: _12  and  _13
REMARK                            x       y       z     vdW  Elec       q    Type
REMARK                         _______ _______ _______ _____ _____    ______ ____
ROOT
ATOM      1  O   UNL     1     -13.696   2.796  -3.594  0.00  0.00    -0.268 OA
ATOM      2  C   UNL     1     -13.929   1.678  -4.037  0.00  0.00    +0.255 A 
ATOM      3  C   UNL     1     -14.060   0.527  -3.120  0.00  0.00    +0.099 A 
ATOM      4  C   UNL     1     -14.315  -0.681  -3.637  0.00  0.00    +0.094 A 
ATOM      5  N   UNL     1     -14.450  -0.831  -4.993  0.00  0.00    -0.305 N 
ATOM      6  H   UNL     1     -14.643  -1.754  -5.374  0.00  0.00    +0.170 HD
ATOM      7  C   UNL     1     -14.341   0.188  -5.895  0.00  0.00    +0.327 A 
ATOM      8  O   UNL     1     -14.469   0.011  -7.101  0.00  0.00    -0.247 OA
ATOM      9  N   UNL     1     -14.081   1.417  -5.365  0.00  0.00    -0.275 N 
ATOM     10  H   UNL     1     -13.997   2.187  -6.011  0.00  0.00    +0.173 HD
ENDROOT
BRANCH   4  11
ATOM     11  C   UNL     1     -14.463  -1.862  -2.864  0.00  0.00    +0.196 A 
ATOM     12  N   UNL     1     -15.212  -2.935  -3.268  0.00  0.00    -0.238 N 
ATOM     13  H   UNL     1     -15.753  -3.084  -4.109  0.00  0.00    +0.192 HD
ATOM     14  N   UNL     1     -15.173  -3.905  -2.346  0.00  0.00    -0.046 NA
ATOM     15  N   UNL     1     -14.402  -3.430  -1.379  0.00  0.00    -0.023 NA
ATOM     16  N   UNL     1     -13.955  -2.169  -1.684  0.00  0.00    -0.107 NA
ENDBRANCH   4  11
TORSDOF 1
ENDMDL
MODEL 8
REMARK VINA RESULT:      -5.2      2.825      4.799
REMARK  Name = min_compound92.pdb
REMARK  1 active torsions:
REMARK  status: ('A' for Active; 'I' for Inactive)
REMARK    1  A    between atoms: _12  and  _13
REMARK                            x       y       z     vdW  Elec       q    Type
REMARK                         _______ _______ _______ _____ _____    ______ ____
ROOT
ATOM      1  O   UNL     1     -15.449   3.953 -16.187  0.00  0.00    -0.268 OA
ATOM      2  C   UNL     1     -14.242   3.869 -16.378  0.00  0.00    +0.255 A 
ATOM      3  C   UNL     1     -13.541   2.588 -16.154  0.00  0.00    +0.099 A 
ATOM      4  C   UNL     1     -12.222   2.529 -16.372  0.00  0.00    +0.094 A 
ATOM      5  N   UNL     1     -11.548   3.646 -16.795  0.00  0.00    -0.305 N 
ATOM      6  H   UNL     1     -10.545   3.590 -16.957  0.00  0.00    +0.170 HD
ATOM      7  C   UNL     1     -12.132   4.859 -17.021  0.00  0.00    +0.327 A 
ATOM      8  O   UNL     1     -11.492   5.833 -17.399  0.00  0.00    -0.247 OA
ATOM      9  N   UNL     1     -13.477   4.915 -16.798  0.00  0.00    -0.275 N 
ATOM     10  H   UNL     1     -13.932   5.800 -16.958  0.00  0.00    +0.173 HD
ENDROOT
BRANCH   4  11
ATOM     11  C   UNL     1     -11.437   1.361 -16.193  0.00  0.00    +0.196 A 
ATOM     12  N   UNL     1     -10.311   1.325 -15.413  0.00  0.00    -0.238 N 
ATOM     13  H   UNL     1      -9.863   2.047 -14.866  0.00  0.00    +0.192 HD
ATOM     14  N   UNL     1      -9.774   0.098 -15.428  0.00  0.00    -0.046 NA
ATOM     15  N   UNL     1     -10.565  -0.616 -16.213  0.00  0.00    -0.023 NA
ATOM     16  N   UNL     1     -11.598   0.150 -16.695  0.00  0.00    -0.107 NA
ENDBRANCH   4  11
TORSDOF 1
ENDMDL
MODEL 9
REMARK VINA RESULT:      -5.1     14.609     15.624
REMARK  Name = min_compound92.pdb
REMARK  1 active torsions:
REMARK  status: ('A' for Active; 'I' for Inactive)
REMARK    1  A    between atoms: _12  and  _13
REMARK                            x       y       z     vdW  Elec       q    Type
REMARK                         _______ _______ _______ _____ _____    ______ ____
ROOT
ATOM      1  O   UNL     1     -16.155  -1.970   0.500  0.00  0.00    -0.268 OA
ATOM      2  C   UNL     1     -15.517  -2.286  -0.496  0.00  0.00    +0.255 A 
ATOM      3  C   UNL     1     -15.802  -1.644  -1.796  0.00  0.00    +0.099 A 
ATOM      4  C   UNL     1     -15.087  -2.013  -2.866  0.00  0.00    +0.094 A 
ATOM      5  N   UNL     1     -14.112  -2.969  -2.741  0.00  0.00    -0.305 N 
ATOM      6  H   UNL     1     -13.575  -3.241  -3.561  0.00  0.00    +0.170 HD
ATOM      7  C   UNL     1     -13.797  -3.601  -1.573  0.00  0.00    +0.327 A 
ATOM      8  O   UNL     1     -12.917  -4.451  -1.504  0.00  0.00    -0.247 OA
ATOM      9  N   UNL     1     -14.528  -3.223  -0.485  0.00  0.00    -0.275 N 
ATOM     10  H   UNL     1     -14.315  -3.675   0.391  0.00  0.00    +0.173 HD
ENDROOT
BRANCH   4  11
ATOM     11  C   UNL     1     -15.264  -1.473  -4.166  0.00  0.00    +0.196 A 
ATOM     12  N   UNL     1     -14.506  -1.847  -5.244  0.00  0.00    -0.238 N 
ATOM     13  H   UNL     1     -13.748  -2.512  -5.320  0.00  0.00    +0.192 HD
ATOM     14  N   UNL     1     -14.891  -1.178  -6.339  0.00  0.00    -0.046 NA
ATOM     15  N   UNL     1     -15.880  -0.397  -5.935  0.00  0.00    -0.023 NA
ATOM     16  N   UNL     1     -16.124  -0.567  -4.595  0.00  0.00    -0.107 NA
ENDBRANCH   4  11
TORSDOF 1
ENDMDL
