MODEL 1
REMARK VINA RESULT:      -6.5      0.000      0.000
REMARK  Name = min_compound968.pdb
REMARK  3 active torsions:
REMARK  status: ('A' for Active; 'I' for Inactive)
REMARK    1  A    between atoms: _6  and  _17
REMARK    2  A    between atoms: _11  and  _18
REMARK    3  A    between atoms: _16  and  _19
REMARK                            x       y       z     vdW  Elec       q    Type
REMARK                         _______ _______ _______ _____ _____    ______ ____
ROOT
ATOM      1  N   UNL     1     -11.953   4.352 -17.722  0.00  0.00    -0.267 N 
ATOM      2  H   UNL     1     -11.146   4.965 -17.701  0.00  0.00    +0.156 HD
ATOM      3  C   UNL     1     -13.137   5.009 -17.421  0.00  0.00    +0.308 C 
ATOM      4  N   UNL     1     -13.196   6.216 -18.093  0.00  0.00    -0.268 N 
ATOM      5  H   UNL     1     -12.448   6.395 -18.745  0.00  0.00    +0.156 HD
ATOM      6  O   UNL     1     -13.977   4.585 -16.640  0.00  0.00    -0.252 OA
ENDROOT
BRANCH   1  11
ATOM      7  C   UNL     1     -11.054   0.425 -16.376  0.00  0.00    +0.003 A 
ATOM      8  C   UNL     1     -10.480   1.542 -15.773  0.00  0.00    +0.022 A 
ATOM      9  C   UNL     1     -10.784   2.822 -16.246  0.00  0.00    +0.064 A 
ATOM     10 CL   UNL     1     -10.035   4.172 -15.457  0.00  0.00    -0.082 Cl
ATOM     11  C   UNL     1     -11.677   3.014 -17.317  0.00  0.00    +0.072 A 
ATOM     12  C   UNL     1     -12.199   1.874 -17.955  0.00  0.00    +0.064 A 
ATOM     13 CL   UNL     1     -13.073   1.938 -19.451  0.00  0.00    -0.082 Cl
ATOM     14  C   UNL     1     -11.900   0.592 -17.471  0.00  0.00    +0.022 A 
ENDBRANCH   1  11
BRANCH   4  15
ATOM     15  C   UNL     1     -14.252   7.149 -18.067  0.00  0.00    +0.053 A 
ATOM     16  C   UNL     1     -14.430   7.897 -16.902  0.00  0.00    +0.026 A 
ATOM     17  C   UNL     1     -15.445   8.850 -16.830  0.00  0.00    +0.025 A 
ATOM     18  C   UNL     1     -16.267   9.041 -17.935  0.00  0.00    +0.038 A 
ATOM     19  C   UNL     1     -17.358  10.067 -17.898  0.00  0.00    +0.065 C 
ATOM     20  N   UNL     1     -16.126   8.325 -19.072  0.00  0.00    -0.258 NA
ATOM     21  C   UNL     1     -15.129   7.401 -19.116  0.00  0.00    +0.134 A 
ENDBRANCH   4  15
TORSDOF 2
ENDMDL
MODEL 2
REMARK VINA RESULT:      -6.4      2.885      7.429
REMARK  Name = min_compound968.pdb
REMARK  3 active torsions:
REMARK  status: ('A' for Active; 'I' for Inactive)
REMARK    1  A    between atoms: _6  and  _17
REMARK    2  A    between atoms: _11  and  _18
REMARK    3  A    between atoms: _16  and  _19
REMARK                            x       y       z     vdW  Elec       q    Type
REMARK                         _______ _______ _______ _____ _____    ______ ____
ROOT
ATOM      1  N   UNL     1     -14.933   4.730 -16.431  0.00  0.00    -0.267 N 
ATOM      2  H   UNL     1     -15.716   4.207 -16.808  0.00  0.00    +0.156 HD
ATOM      3  C   UNL     1     -13.861   3.920 -16.086  0.00  0.00    +0.308 C 
ATOM      4  N   UNL     1     -13.627   2.991 -17.083  0.00  0.00    -0.268 N 
ATOM      5  H   UNL     1     -14.183   3.090 -17.918  0.00  0.00    +0.156 HD
ATOM      6  O   UNL     1     -13.249   4.005 -15.031  0.00  0.00    -0.252 OA
ENDROOT
BRANCH   1  11
ATOM      7  C   UNL     1     -15.999   8.271 -14.341  0.00  0.00    +0.003 A 
ATOM      8  C   UNL     1     -15.204   8.321 -15.484  0.00  0.00    +0.022 A 
ATOM      9  C   UNL     1     -14.857   7.138 -16.144  0.00  0.00    +0.064 A 
ATOM     10 CL   UNL     1     -13.862   7.265 -17.557  0.00  0.00    -0.082 Cl
ATOM     11  C   UNL     1     -15.310   5.885 -15.687  0.00  0.00    +0.072 A 
ATOM     12  C   UNL     1     -16.060   5.847 -14.497  0.00  0.00    +0.064 A 
ATOM     13 CL   UNL     1     -16.441   4.377 -13.661  0.00  0.00    -0.082 Cl
ATOM     14  C   UNL     1     -16.414   7.036 -13.844  0.00  0.00    +0.022 A 
ENDBRANCH   1  11
BRANCH   4  15
ATOM     15  C   UNL     1     -12.606   2.019 -17.111  0.00  0.00    +0.053 A 
ATOM     16  C   UNL     1     -12.912   0.742 -16.637  0.00  0.00    +0.026 A 
ATOM     17  C   UNL     1     -11.947  -0.264 -16.664  0.00  0.00    +0.025 A 
ATOM     18  C   UNL     1     -10.686   0.028 -17.171  0.00  0.00    +0.038 A 
ATOM     19  C   UNL     1      -9.629  -1.034 -17.228  0.00  0.00    +0.065 C 
ATOM     20  N   UNL     1     -10.357   1.256 -17.626  0.00  0.00    -0.258 NA
ATOM     21  C   UNL     1     -11.316   2.220 -17.589  0.00  0.00    +0.134 A 
ENDBRANCH   4  15
TORSDOF 2
ENDMDL
MODEL 3
REMARK VINA RESULT:      -6.3      2.913      7.472
REMARK  Name = min_compound968.pdb
REMARK  3 active torsions:
REMARK  status: ('A' for Active; 'I' for Inactive)
REMARK    1  A    between atoms: _6  and  _17
REMARK    2  A    between atoms: _11  and  _18
REMARK    3  A    between atoms: _16  and  _19
REMARK                            x       y       z     vdW  Elec       q    Type
REMARK                         _______ _______ _______ _____ _____    ______ ____
ROOT
ATOM      1  N   UNL     1     -14.892   4.729 -16.532  0.00  0.00    -0.267 N 
ATOM      2  H   UNL     1     -15.650   4.198 -16.946  0.00  0.00    +0.156 HD
ATOM      3  C   UNL     1     -13.830   3.930 -16.133  0.00  0.00    +0.308 C 
ATOM      4  N   UNL     1     -13.538   3.000 -17.113  0.00  0.00    -0.268 N 
ATOM      5  H   UNL     1     -14.054   3.091 -17.975  0.00  0.00    +0.156 HD
ATOM      6  O   UNL     1     -13.271   4.024 -15.049  0.00  0.00    -0.252 OA
ENDROOT
BRANCH   1  11
ATOM      7  C   UNL     1     -16.233   8.066 -14.274  0.00  0.00    +0.003 A 
ATOM      8  C   UNL     1     -16.724   6.787 -14.028  0.00  0.00    +0.022 A 
ATOM      9  C   UNL     1     -16.275   5.709 -14.797  0.00  0.00    +0.064 A 
ATOM     10 CL   UNL     1     -16.928   4.141 -14.447  0.00  0.00    -0.082 Cl
ATOM     11  C   UNL     1     -15.315   5.883 -15.812  0.00  0.00    +0.072 A 
ATOM     12  C   UNL     1     -14.875   7.191 -16.088  0.00  0.00    +0.064 A 
ATOM     13 CL   UNL     1     -13.926   7.599 -17.480  0.00  0.00    -0.082 Cl
ATOM     14  C   UNL     1     -15.320   8.267 -15.308  0.00  0.00    +0.022 A 
ENDBRANCH   1  11
BRANCH   4  15
ATOM     15  C   UNL     1     -12.509   2.038 -17.089  0.00  0.00    +0.053 A 
ATOM     16  C   UNL     1     -12.840   0.743 -16.687  0.00  0.00    +0.026 A 
ATOM     17  C   UNL     1     -11.866  -0.255 -16.666  0.00  0.00    +0.025 A 
ATOM     18  C   UNL     1     -10.569   0.065 -17.054  0.00  0.00    +0.038 A 
ATOM     19  C   UNL     1      -9.500  -0.986 -17.057  0.00  0.00    +0.065 C 
ATOM     20  N   UNL     1     -10.216   1.311 -17.436  0.00  0.00    -0.258 NA
ATOM     21  C   UNL     1     -11.185   2.266 -17.447  0.00  0.00    +0.134 A 
ENDBRANCH   4  15
TORSDOF 2
ENDMDL
MODEL 4
REMARK VINA RESULT:      -6.3      0.261      2.114
REMARK  Name = min_compound968.pdb
REMARK  3 active torsions:
REMARK  status: ('A' for Active; 'I' for Inactive)
REMARK    1  A    between atoms: _6  and  _17
REMARK    2  A    between atoms: _11  and  _18
REMARK    3  A    between atoms: _16  and  _19
REMARK                            x       y       z     vdW  Elec       q    Type
REMARK                         _______ _______ _______ _____ _____    ______ ____
ROOT
ATOM      1  N   UNL     1     -11.926   4.201 -18.023  0.00  0.00    -0.267 N 
ATOM      2  H   UNL     1     -11.135   4.786 -18.268  0.00  0.00    +0.156 HD
ATOM      3  C   UNL     1     -13.028   4.932 -17.605  0.00  0.00    +0.308 C 
ATOM      4  N   UNL     1     -13.231   6.011 -18.445  0.00  0.00    -0.268 N 
ATOM      5  H   UNL     1     -12.632   6.058 -19.255  0.00  0.00    +0.156 HD
ATOM      6  O   UNL     1     -13.690   4.667 -16.611  0.00  0.00    -0.252 OA
ENDROOT
BRANCH   1  11
ATOM      7  C   UNL     1     -10.926   0.371 -16.484  0.00  0.00    +0.003 A 
ATOM      8  C   UNL     1     -11.808   0.509 -17.553  0.00  0.00    +0.022 A 
ATOM      9  C   UNL     1     -12.130   1.783 -18.030  0.00  0.00    +0.064 A 
ATOM     10 CL   UNL     1     -13.239   1.891 -19.358  0.00  0.00    -0.082 Cl
ATOM     11  C   UNL     1     -11.566   2.942 -17.463  0.00  0.00    +0.072 A 
ATOM     12  C   UNL     1     -10.724   2.788 -16.345  0.00  0.00    +0.064 A 
ATOM     13 CL   UNL     1     -10.189   4.117 -15.369  0.00  0.00    -0.082 Cl
ATOM     14  C   UNL     1     -10.396   1.508 -15.876  0.00  0.00    +0.022 A 
ENDBRANCH   1  11
BRANCH   4  15
ATOM     15  C   UNL     1     -14.266   6.965 -18.365  0.00  0.00    +0.053 A 
ATOM     16  C   UNL     1     -14.316   7.775 -17.230  0.00  0.00    +0.026 A 
ATOM     17  C   UNL     1     -15.305   8.750 -17.109  0.00  0.00    +0.025 A 
ATOM     18  C   UNL     1     -16.230   8.899 -18.136  0.00  0.00    +0.038 A 
ATOM     19  C   UNL     1     -17.298   9.948 -18.046  0.00  0.00    +0.065 C 
ATOM     20  N   UNL     1     -16.214   8.123 -19.241  0.00  0.00    -0.258 NA
ATOM     21  C   UNL     1     -15.239   7.179 -19.334  0.00  0.00    +0.134 A 
ENDBRANCH   4  15
TORSDOF 2
ENDMDL
MODEL 5
REMARK VINA RESULT:      -6.2      3.665      7.625
REMARK  Name = min_compound968.pdb
REMARK  3 active torsions:
REMARK  status: ('A' for Active; 'I' for Inactive)
REMARK    1  A    between atoms: _6  and  _17
REMARK    2  A    between atoms: _11  and  _18
REMARK    3  A    between atoms: _16  and  _19
REMARK                            x       y       z     vdW  Elec       q    Type
REMARK                         _______ _______ _______ _____ _____    ______ ____
ROOT
ATOM      1  N   UNL     1     -14.649   4.929 -15.199  0.00  0.00    -0.267 N 
ATOM      2  H   UNL     1     -14.382   5.601 -15.911  0.00  0.00    +0.156 HD
ATOM      3  C   UNL     1     -14.235   3.639 -15.495  0.00  0.00    +0.308 C 
ATOM      4  N   UNL     1     -12.929   3.650 -15.949  0.00  0.00    -0.268 N 
ATOM      5  H   UNL     1     -12.457   4.541 -15.914  0.00  0.00    +0.156 HD
ATOM      6  O   UNL     1     -14.949   2.650 -15.400  0.00  0.00    -0.252 OA
ENDROOT
BRANCH   1  11
ATOM      7  C   UNL     1     -18.409   5.810 -13.431  0.00  0.00    +0.003 A 
ATOM      8  C   UNL     1     -18.228   5.877 -14.811  0.00  0.00    +0.022 A 
ATOM      9  C   UNL     1     -16.976   5.596 -15.364  0.00  0.00    +0.064 A 
ATOM     10 CL   UNL     1     -16.813   5.702 -17.086  0.00  0.00    -0.082 Cl
ATOM     11  C   UNL     1     -15.885   5.224 -14.555  0.00  0.00    +0.072 A 
ATOM     12  C   UNL     1     -16.067   5.221 -13.160  0.00  0.00    +0.064 A 
ATOM     13 CL   UNL     1     -14.760   5.069 -12.031  0.00  0.00    -0.082 Cl
ATOM     14  C   UNL     1     -17.328   5.494 -12.610  0.00  0.00    +0.022 A 
ENDBRANCH   1  11
BRANCH   4  15
ATOM     15  C   UNL     1     -12.150   2.534 -16.317  0.00  0.00    +0.053 A 
ATOM     16  C   UNL     1     -11.107   2.162 -15.467  0.00  0.00    +0.026 A 
ATOM     17  C   UNL     1     -10.319   1.052 -15.771  0.00  0.00    +0.025 A 
ATOM     18  C   UNL     1     -10.595   0.328 -16.926  0.00  0.00    +0.038 A 
ATOM     19  C   UNL     1      -9.778  -0.879 -17.276  0.00  0.00    +0.065 C 
ATOM     20  N   UNL     1     -11.590   0.671 -17.773  0.00  0.00    -0.258 NA
ATOM     21  C   UNL     1     -12.343   1.758 -17.454  0.00  0.00    +0.134 A 
ENDBRANCH   4  15
TORSDOF 2
ENDMDL
MODEL 6
REMARK VINA RESULT:      -6.2     10.477     11.133
REMARK  Name = min_compound968.pdb
REMARK  3 active torsions:
REMARK  status: ('A' for Active; 'I' for Inactive)
REMARK    1  A    between atoms: _6  and  _17
REMARK    2  A    between atoms: _11  and  _18
REMARK    3  A    between atoms: _16  and  _19
REMARK                            x       y       z     vdW  Elec       q    Type
REMARK                         _______ _______ _______ _____ _____    ______ ____
ROOT
ATOM      1  N   UNL     1     -16.663   1.579  -6.337  0.00  0.00    -0.267 N 
ATOM      2  H   UNL     1     -17.624   1.270  -6.431  0.00  0.00    +0.156 HD
ATOM      3  C   UNL     1     -16.142   2.085  -7.518  0.00  0.00    +0.308 C 
ATOM      4  N   UNL     1     -17.059   2.926  -8.122  0.00  0.00    -0.268 N 
ATOM      5  H   UNL     1     -17.899   3.114  -7.595  0.00  0.00    +0.156 HD
ATOM      6  O   UNL     1     -15.044   1.789  -7.967  0.00  0.00    -0.252 OA
ENDROOT
BRANCH   1  11
ATOM      7  C   UNL     1     -14.385  -0.557  -3.459  0.00  0.00    +0.003 A 
ATOM      8  C   UNL     1     -14.650   0.801  -3.303  0.00  0.00    +0.022 A 
ATOM      9  C   UNL     1     -15.391   1.482  -4.273  0.00  0.00    +0.064 A 
ATOM     10 CL   UNL     1     -15.684   3.172  -4.025  0.00  0.00    -0.082 Cl
ATOM     11  C   UNL     1     -15.896   0.819  -5.408  0.00  0.00    +0.072 A 
ATOM     12  C   UNL     1     -15.567  -0.539  -5.581  0.00  0.00    +0.064 A 
ATOM     13 CL   UNL     1     -15.866  -1.409  -7.050  0.00  0.00    -0.082 Cl
ATOM     14  C   UNL     1     -14.832  -1.220  -4.601  0.00  0.00    +0.022 A 
ENDBRANCH   1  11
BRANCH   4  15
ATOM     15  C   UNL     1     -16.885   3.652  -9.317  0.00  0.00    +0.053 A 
ATOM     16  C   UNL     1     -17.101   2.981 -10.522  0.00  0.00    +0.026 A 
ATOM     17  C   UNL     1     -16.965   3.657 -11.734  0.00  0.00    +0.025 A 
ATOM     18  C   UNL     1     -16.615   5.003 -11.717  0.00  0.00    +0.038 A 
ATOM     19  C   UNL     1     -16.475   5.764 -13.000  0.00  0.00    +0.065 C 
ATOM     20  N   UNL     1     -16.389   5.675 -10.568  0.00  0.00    -0.258 NA
ATOM     21  C   UNL     1     -16.527   4.993  -9.399  0.00  0.00    +0.134 A 
ENDBRANCH   4  15
TORSDOF 2
ENDMDL
MODEL 7
REMARK VINA RESULT:      -6.2     11.699     12.497
REMARK  Name = min_compound968.pdb
REMARK  3 active torsions:
REMARK  status: ('A' for Active; 'I' for Inactive)
REMARK    1  A    between atoms: _6  and  _17
REMARK    2  A    between atoms: _11  and  _18
REMARK    3  A    between atoms: _16  and  _19
REMARK                            x       y       z     vdW  Elec       q    Type
REMARK                         _______ _______ _______ _____ _____    ______ ____
ROOT
ATOM      1  N   UNL     1     -16.561   1.613  -5.022  0.00  0.00    -0.267 N 
ATOM      2  H   UNL     1     -17.443   1.909  -4.620  0.00  0.00    +0.156 HD
ATOM      3  C   UNL     1     -16.607   1.506  -6.404  0.00  0.00    +0.308 C 
ATOM      4  N   UNL     1     -17.255   2.602  -6.945  0.00  0.00    -0.268 N 
ATOM      5  H   UNL     1     -17.506   3.331  -6.294  0.00  0.00    +0.156 HD
ATOM      6  O   UNL     1     -16.170   0.554  -7.034  0.00  0.00    -0.252 OA
ENDROOT
BRANCH   1  11
ATOM      7  C   UNL     1     -14.450  -1.155  -2.589  0.00  0.00    +0.003 A 
ATOM      8  C   UNL     1     -15.730  -1.439  -3.057  0.00  0.00    +0.022 A 
ATOM      9  C   UNL     1     -16.407  -0.503  -3.844  0.00  0.00    +0.064 A 
ATOM     10 CL   UNL     1     -18.000  -0.912  -4.392  0.00  0.00    -0.082 Cl
ATOM     11  C   UNL     1     -15.814   0.725  -4.195  0.00  0.00    +0.072 A 
ATOM     12  C   UNL     1     -14.545   1.022  -3.663  0.00  0.00    +0.064 A 
ATOM     13 CL   UNL     1     -13.816   2.591  -3.765  0.00  0.00    -0.082 Cl
ATOM     14  C   UNL     1     -13.866   0.076  -2.882  0.00  0.00    +0.022 A 
ENDBRANCH   1  11
BRANCH   4  15
ATOM     15  C   UNL     1     -17.471   2.869  -8.312  0.00  0.00    +0.053 A 
ATOM     16  C   UNL     1     -16.363   3.211  -9.089  0.00  0.00    +0.026 A 
ATOM     17  C   UNL     1     -16.516   3.463 -10.452  0.00  0.00    +0.025 A 
ATOM     18  C   UNL     1     -17.783   3.364 -11.016  0.00  0.00    +0.038 A 
ATOM     19  C   UNL     1     -17.981   3.614 -12.480  0.00  0.00    +0.065 C 
ATOM     20  N   UNL     1     -18.875   3.047 -10.287  0.00  0.00    -0.258 NA
ATOM     21  C   UNL     1     -18.700   2.807  -8.959  0.00  0.00    +0.134 A 
ENDBRANCH   4  15
TORSDOF 2
ENDMDL
MODEL 8
REMARK VINA RESULT:      -6.2     11.058     11.901
REMARK  Name = min_compound968.pdb
REMARK  3 active torsions:
REMARK  status: ('A' for Active; 'I' for Inactive)
REMARK    1  A    between atoms: _6  and  _17
REMARK    2  A    between atoms: _11  and  _18
REMARK    3  A    between atoms: _16  and  _19
REMARK                            x       y       z     vdW  Elec       q    Type
REMARK                         _______ _______ _______ _____ _____    ______ ____
ROOT
ATOM      1  N   UNL     1     -16.567   1.654  -5.615  0.00  0.00    -0.267 N 
ATOM      2  H   UNL     1     -17.575   1.629  -5.503  0.00  0.00    +0.156 HD
ATOM      3  C   UNL     1     -16.177   1.883  -6.926  0.00  0.00    +0.308 C 
ATOM      4  N   UNL     1     -16.937   2.897  -7.479  0.00  0.00    -0.268 N 
ATOM      5  H   UNL     1     -17.572   3.365  -6.851  0.00  0.00    +0.156 HD
ATOM      6  O   UNL     1     -15.311   1.242  -7.506  0.00  0.00    -0.252 OA
ENDROOT
BRANCH   1  11
ATOM      7  C   UNL     1     -14.555  -1.058  -3.039  0.00  0.00    +0.003 A 
ATOM      8  C   UNL     1     -15.679  -1.451  -3.762  0.00  0.00    +0.022 A 
ATOM      9  C   UNL     1     -16.330  -0.533  -4.592  0.00  0.00    +0.064 A 
ATOM     10 CL   UNL     1     -17.725  -1.080  -5.462  0.00  0.00    -0.082 Cl
ATOM     11  C   UNL     1     -15.863   0.788  -4.730  0.00  0.00    +0.072 A 
ATOM     12  C   UNL     1     -14.764   1.186  -3.945  0.00  0.00    +0.064 A 
ATOM     13 CL   UNL     1     -14.257   2.837  -3.789  0.00  0.00    -0.082 Cl
ATOM     14  C   UNL     1     -14.108   0.260  -3.122  0.00  0.00    +0.022 A 
ENDBRANCH   1  11
BRANCH   4  15
ATOM     15  C   UNL     1     -16.816   3.434  -8.777  0.00  0.00    +0.053 A 
ATOM     16  C   UNL     1     -17.169   2.617  -9.853  0.00  0.00    +0.026 A 
ATOM     17  C   UNL     1     -17.091   3.105 -11.157  0.00  0.00    +0.025 A 
ATOM     18  C   UNL     1     -16.662   4.412 -11.360  0.00  0.00    +0.038 A 
ATOM     19  C   UNL     1     -16.581   4.974 -12.747  0.00  0.00    +0.065 C 
ATOM     20  N   UNL     1     -16.304   5.222 -10.340  0.00  0.00    -0.258 NA
ATOM     21  C   UNL     1     -16.388   4.722  -9.078  0.00  0.00    +0.134 A 
ENDBRANCH   4  15
TORSDOF 2
ENDMDL
MODEL 9
REMARK VINA RESULT:      -6.2      1.900      2.074
REMARK  Name = min_compound968.pdb
REMARK  3 active torsions:
REMARK  status: ('A' for Active; 'I' for Inactive)
REMARK    1  A    between atoms: _6  and  _17
REMARK    2  A    between atoms: _11  and  _18
REMARK    3  A    between atoms: _16  and  _19
REMARK                            x       y       z     vdW  Elec       q    Type
REMARK                         _______ _______ _______ _____ _____    ______ ____
ROOT
ATOM      1  N   UNL     1     -12.581   2.691 -16.036  0.00  0.00    -0.267 N 
ATOM      2  H   UNL     1     -13.122   2.471 -15.208  0.00  0.00    +0.156 HD
ATOM      3  C   UNL     1     -13.250   3.540 -16.906  0.00  0.00    +0.308 C 
ATOM      4  N   UNL     1     -13.846   4.570 -16.203  0.00  0.00    -0.268 N 
ATOM      5  H   UNL     1     -13.642   4.606 -15.216  0.00  0.00    +0.156 HD
ATOM      6  O   UNL     1     -13.324   3.364 -18.114  0.00  0.00    -0.252 OA
ENDROOT
BRANCH   1  11
ATOM      7  C   UNL     1      -9.922  -0.347 -17.353  0.00  0.00    +0.003 A 
ATOM      8  C   UNL     1      -9.562   0.997 -17.406  0.00  0.00    +0.022 A 
ATOM      9  C   UNL     1     -10.463   1.977 -16.979  0.00  0.00    +0.064 A 
ATOM     10 CL   UNL     1      -9.959   3.632 -17.074  0.00  0.00    -0.082 Cl
ATOM     11  C   UNL     1     -11.732   1.635 -16.474  0.00  0.00    +0.072 A 
ATOM     12  C   UNL     1     -12.104   0.277 -16.486  0.00  0.00    +0.064 A 
ATOM     13 CL   UNL     1     -13.719  -0.268 -16.172  0.00  0.00    -0.082 Cl
ATOM     14  C   UNL     1     -11.193  -0.703 -16.905  0.00  0.00    +0.022 A 
ENDBRANCH   1  11
BRANCH   4  15
ATOM     15  C   UNL     1     -14.586   5.645 -16.738  0.00  0.00    +0.053 A 
ATOM     16  C   UNL     1     -13.885   6.794 -17.108  0.00  0.00    +0.026 A 
ATOM     17  C   UNL     1     -14.563   7.878 -17.663  0.00  0.00    +0.025 A 
ATOM     18  C   UNL     1     -15.939   7.790 -17.842  0.00  0.00    +0.038 A 
ATOM     19  C   UNL     1     -16.698   8.930 -18.450  0.00  0.00    +0.065 C 
ATOM     20  N   UNL     1     -16.645   6.696 -17.483  0.00  0.00    -0.258 NA
ATOM     21  C   UNL     1     -15.961   5.652 -16.943  0.00  0.00    +0.134 A 
ENDBRANCH   4  15
TORSDOF 2
ENDMDL
