MODEL 1
REMARK VINA RESULT:      -8.2      0.000      0.000
REMARK  Name = min_compound955.pdb
REMARK  3 active torsions:
REMARK  status: ('A' for Active; 'I' for Inactive)
REMARK    1  A    between atoms: _11  and  _19
REMARK    2  A    between atoms: _12  and  _20
REMARK    3  A    between atoms: _15  and  _20
REMARK                            x       y       z     vdW  Elec       q    Type
REMARK                         _______ _______ _______ _____ _____    ______ ____
ROOT
ATOM      1  O   UNL     1     -10.724   4.209 -17.461  0.00  0.00    -0.619 OA
ATOM      2  N   UNL     1     -11.572   3.319 -17.108  0.00  0.00    -0.157 N 
ATOM      3  C   UNL     1     -11.170   1.970 -17.031  0.00  0.00    +0.292 A 
ATOM      4  C   UNL     1     -12.096   0.988 -16.635  0.00  0.00    +0.292 A 
ATOM      5  C   UNL     1     -11.683  -0.365 -16.605  0.00  0.00    +0.086 A 
ATOM      6  C   UNL     1     -10.385  -0.736 -16.954  0.00  0.00    +0.007 A 
ATOM      7  C   UNL     1      -9.468   0.236 -17.334  0.00  0.00    +0.007 A 
ATOM      8  N   UNL     1     -13.411   1.361 -16.289  0.00  0.00    -0.157 N 
ATOM      9  O   UNL     1     -14.250   0.455 -15.947  0.00  0.00    -0.619 OA
ATOM     10  C   UNL     1     -13.812   2.704 -16.347  0.00  0.00    +0.268 A 
ATOM     11  C   UNL     1      -9.855   1.576 -17.369  0.00  0.00    +0.086 A 
ATOM     12  C   UNL     1     -12.895   3.677 -16.815  0.00  0.00    +0.261 A 
ATOM     13  C   UNL     1     -13.241   5.122 -17.023  0.00  0.00    +0.130 C 
ENDROOT
BRANCH  10  14
ATOM     14  C   UNL     1     -15.272   2.932 -16.017  0.00  0.00    +0.150 C 
BRANCH  14  15
ATOM     15  C   UNL     1     -15.669   3.286 -14.601  0.00  0.00    -0.037 A 
ATOM     16  C   UNL     1     -16.750   2.625 -13.995  0.00  0.00    +0.004 A 
ATOM     17  C   UNL     1     -17.120   2.918 -12.683  0.00  0.00    +0.000 A 
ATOM     18  C   UNL     1     -16.407   3.867 -11.955  0.00  0.00    +0.000 A 
ATOM     19  C   UNL     1     -15.316   4.514 -12.535  0.00  0.00    +0.000 A 
ATOM     20  C   UNL     1     -14.941   4.220 -13.849  0.00  0.00    +0.004 A 
ENDBRANCH  14  15
ENDBRANCH  10  14
TORSDOF 2
ENDMDL
MODEL 2
REMARK VINA RESULT:      -7.7      2.758      6.216
REMARK  Name = min_compound955.pdb
REMARK  3 active torsions:
REMARK  status: ('A' for Active; 'I' for Inactive)
REMARK    1  A    between atoms: _11  and  _19
REMARK    2  A    between atoms: _12  and  _20
REMARK    3  A    between atoms: _15  and  _20
REMARK                            x       y       z     vdW  Elec       q    Type
REMARK                         _______ _______ _______ _____ _____    ______ ____
ROOT
ATOM      1  O   UNL     1     -15.333   3.374 -17.722  0.00  0.00    -0.619 OA
ATOM      2  N   UNL     1     -14.150   3.741 -17.399  0.00  0.00    -0.157 N 
ATOM      3  C   UNL     1     -13.652   4.971 -17.874  0.00  0.00    +0.292 A 
ATOM      4  C   UNL     1     -12.355   5.383 -17.516  0.00  0.00    +0.292 A 
ATOM      5  C   UNL     1     -11.859   6.601 -18.037  0.00  0.00    +0.086 A 
ATOM      6  C   UNL     1     -12.627   7.393 -18.889  0.00  0.00    +0.007 A 
ATOM      7  C   UNL     1     -13.912   6.991 -19.234  0.00  0.00    +0.007 A 
ATOM      8  N   UNL     1     -11.574   4.579 -16.660  0.00  0.00    -0.157 N 
ATOM      9  O   UNL     1     -10.389   4.957 -16.355  0.00  0.00    -0.619 OA
ATOM     10  C   UNL     1     -12.072   3.363 -16.170  0.00  0.00    +0.268 A 
ATOM     11  C   UNL     1     -14.421   5.794 -18.730  0.00  0.00    +0.086 A 
ATOM     12  C   UNL     1     -13.349   2.921 -16.594  0.00  0.00    +0.261 A 
ATOM     13  C   UNL     1     -13.940   1.591 -16.225  0.00  0.00    +0.130 C 
ENDROOT
BRANCH  10  14
ATOM     14  C   UNL     1     -11.086   2.583 -15.325  0.00  0.00    +0.150 C 
BRANCH  14  15
ATOM     15  C   UNL     1     -10.400   1.370 -15.912  0.00  0.00    -0.037 A 
ATOM     16  C   UNL     1     -10.341   0.177 -15.171  0.00  0.00    +0.004 A 
ATOM     17  C   UNL     1      -9.733  -0.961 -15.700  0.00  0.00    +0.000 A 
ATOM     18  C   UNL     1      -9.189  -0.927 -16.981  0.00  0.00    +0.000 A 
ATOM     19  C   UNL     1      -9.261   0.243 -17.737  0.00  0.00    +0.000 A 
ATOM     20  C   UNL     1      -9.872   1.385 -17.210  0.00  0.00    +0.004 A 
ENDBRANCH  14  15
ENDBRANCH  10  14
TORSDOF 2
ENDMDL
MODEL 3
REMARK VINA RESULT:      -7.4      2.363      6.204
REMARK  Name = min_compound955.pdb
REMARK  3 active torsions:
REMARK  status: ('A' for Active; 'I' for Inactive)
REMARK    1  A    between atoms: _11  and  _19
REMARK    2  A    between atoms: _12  and  _20
REMARK    3  A    between atoms: _15  and  _20
REMARK                            x       y       z     vdW  Elec       q    Type
REMARK                         _______ _______ _______ _____ _____    ______ ____
ROOT
ATOM      1  O   UNL     1     -15.840   4.161 -14.666  0.00  0.00    -0.619 OA
ATOM      2  N   UNL     1     -15.079   4.168 -15.694  0.00  0.00    -0.157 N 
ATOM      3  C   UNL     1     -14.712   5.397 -16.277  0.00  0.00    +0.292 A 
ATOM      4  C   UNL     1     -13.869   5.411 -17.403  0.00  0.00    +0.292 A 
ATOM      5  C   UNL     1     -13.546   6.653 -17.998  0.00  0.00    +0.086 A 
ATOM      6  C   UNL     1     -14.044   7.853 -17.490  0.00  0.00    +0.007 A 
ATOM      7  C   UNL     1     -14.868   7.839 -16.371  0.00  0.00    +0.007 A 
ATOM      8  N   UNL     1     -13.371   4.198 -17.923  0.00  0.00    -0.157 N 
ATOM      9  O   UNL     1     -12.618   4.223 -18.959  0.00  0.00    -0.619 OA
ATOM     10  C   UNL     1     -13.718   2.973 -17.335  0.00  0.00    +0.268 A 
ATOM     11  C   UNL     1     -15.197   6.625 -15.769  0.00  0.00    +0.086 A 
ATOM     12  C   UNL     1     -14.626   2.963 -16.248  0.00  0.00    +0.261 A 
ATOM     13  C   UNL     1     -15.154   1.712 -15.610  0.00  0.00    +0.130 C 
ENDROOT
BRANCH  10  14
ATOM     14  C   UNL     1     -13.164   1.760 -18.053  0.00  0.00    +0.150 C 
BRANCH  14  15
ATOM     15  C   UNL     1     -11.973   1.032 -17.473  0.00  0.00    -0.037 A 
ATOM     16  C   UNL     1     -12.167  -0.160 -16.755  0.00  0.00    +0.004 A 
ATOM     17  C   UNL     1     -11.082  -0.861 -16.230  0.00  0.00    +0.000 A 
ATOM     18  C   UNL     1      -9.787  -0.388 -16.426  0.00  0.00    +0.000 A 
ATOM     19  C   UNL     1      -9.577   0.782 -17.157  0.00  0.00    +0.000 A 
ATOM     20  C   UNL     1     -10.663   1.485 -17.687  0.00  0.00    +0.004 A 
ENDBRANCH  14  15
ENDBRANCH  10  14
TORSDOF 2
ENDMDL
MODEL 4
REMARK VINA RESULT:      -7.4      1.722      1.980
REMARK  Name = min_compound955.pdb
REMARK  3 active torsions:
REMARK  status: ('A' for Active; 'I' for Inactive)
REMARK    1  A    between atoms: _11  and  _19
REMARK    2  A    between atoms: _12  and  _20
REMARK    3  A    between atoms: _15  and  _20
REMARK                            x       y       z     vdW  Elec       q    Type
REMARK                         _______ _______ _______ _____ _____    ______ ____
ROOT
ATOM      1  O   UNL     1     -12.695   1.328 -19.664  0.00  0.00    -0.619 OA
ATOM      2  N   UNL     1     -12.479   1.694 -18.457  0.00  0.00    -0.157 N 
ATOM      3  C   UNL     1     -11.490   1.034 -17.699  0.00  0.00    +0.292 A 
ATOM      4  C   UNL     1     -11.243   1.437 -16.374  0.00  0.00    +0.292 A 
ATOM      5  C   UNL     1     -10.276   0.734 -15.618  0.00  0.00    +0.086 A 
ATOM      6  C   UNL     1      -9.569  -0.339 -16.159  0.00  0.00    +0.007 A 
ATOM      7  C   UNL     1      -9.806  -0.729 -17.472  0.00  0.00    +0.007 A 
ATOM      8  N   UNL     1     -11.962   2.517 -15.822  0.00  0.00    -0.157 N 
ATOM      9  O   UNL     1     -11.740   2.863 -14.609  0.00  0.00    -0.619 OA
ATOM     10  C   UNL     1     -12.934   3.189 -16.578  0.00  0.00    +0.268 A 
ATOM     11  C   UNL     1     -10.755  -0.049 -18.235  0.00  0.00    +0.086 A 
ATOM     12  C   UNL     1     -13.228   2.730 -17.886  0.00  0.00    +0.261 A 
ATOM     13  C   UNL     1     -14.319   3.298 -18.746  0.00  0.00    +0.130 C 
ENDROOT
BRANCH  10  14
ATOM     14  C   UNL     1     -13.669   4.275 -15.821  0.00  0.00    +0.150 C 
BRANCH  14  15
ATOM     15  C   UNL     1     -14.792   3.898 -14.882  0.00  0.00    -0.037 A 
ATOM     16  C   UNL     1     -15.691   2.881 -15.244  0.00  0.00    +0.004 A 
ATOM     17  C   UNL     1     -16.721   2.500 -14.385  0.00  0.00    +0.000 A 
ATOM     18  C   UNL     1     -16.859   3.122 -13.147  0.00  0.00    +0.000 A 
ATOM     19  C   UNL     1     -15.961   4.117 -12.764  0.00  0.00    +0.000 A 
ATOM     20  C   UNL     1     -14.925   4.499 -13.622  0.00  0.00    +0.004 A 
ENDBRANCH  14  15
ENDBRANCH  10  14
TORSDOF 2
ENDMDL
MODEL 5
REMARK VINA RESULT:      -7.3      2.693      5.961
REMARK  Name = min_compound955.pdb
REMARK  3 active torsions:
REMARK  status: ('A' for Active; 'I' for Inactive)
REMARK    1  A    between atoms: _11  and  _19
REMARK    2  A    between atoms: _12  and  _20
REMARK    3  A    between atoms: _15  and  _20
REMARK                            x       y       z     vdW  Elec       q    Type
REMARK                         _______ _______ _______ _____ _____    ______ ____
ROOT
ATOM      1  O   UNL     1     -11.470   6.802 -17.948  0.00  0.00    -0.619 OA
ATOM      2  N   UNL     1     -12.152   5.889 -17.366  0.00  0.00    -0.157 N 
ATOM      3  C   UNL     1     -13.560   5.938 -17.414  0.00  0.00    +0.292 A 
ATOM      4  C   UNL     1     -14.314   4.931 -16.783  0.00  0.00    +0.292 A 
ATOM      5  C   UNL     1     -15.725   5.022 -16.807  0.00  0.00    +0.086 A 
ATOM      6  C   UNL     1     -16.375   6.081 -17.442  0.00  0.00    +0.007 A 
ATOM      7  C   UNL     1     -15.629   7.068 -18.074  0.00  0.00    +0.007 A 
ATOM      8  N   UNL     1     -13.659   3.864 -16.135  0.00  0.00    -0.157 N 
ATOM      9  O   UNL     1     -14.357   2.964 -15.549  0.00  0.00    -0.619 OA
ATOM     10  C   UNL     1     -12.258   3.801 -16.100  0.00  0.00    +0.268 A 
ATOM     11  C   UNL     1     -14.236   6.997 -18.063  0.00  0.00    +0.086 A 
ATOM     12  C   UNL     1     -11.507   4.856 -16.674  0.00  0.00    +0.261 A 
ATOM     13  C   UNL     1     -10.011   4.953 -16.602  0.00  0.00    +0.130 C 
ENDROOT
BRANCH  10  14
ATOM     14  C   UNL     1     -11.708   2.637 -15.303  0.00  0.00    +0.150 C 
BRANCH  14  15
ATOM     15  C   UNL     1     -11.109   1.454 -16.030  0.00  0.00    -0.037 A 
ATOM     16  C   UNL     1     -10.166   0.640 -15.379  0.00  0.00    +0.004 A 
ATOM     17  C   UNL     1      -9.617  -0.469 -16.021  0.00  0.00    +0.000 A 
ATOM     18  C   UNL     1     -10.011  -0.787 -17.319  0.00  0.00    +0.000 A 
ATOM     19  C   UNL     1     -10.962  -0.001 -17.969  0.00  0.00    +0.000 A 
ATOM     20  C   UNL     1     -11.517   1.109 -17.327  0.00  0.00    +0.004 A 
ENDBRANCH  14  15
ENDBRANCH  10  14
TORSDOF 2
ENDMDL
MODEL 6
REMARK VINA RESULT:      -7.3      3.432      6.038
REMARK  Name = min_compound955.pdb
REMARK  3 active torsions:
REMARK  status: ('A' for Active; 'I' for Inactive)
REMARK    1  A    between atoms: _11  and  _19
REMARK    2  A    between atoms: _12  and  _20
REMARK    3  A    between atoms: _15  and  _20
REMARK                            x       y       z     vdW  Elec       q    Type
REMARK                         _______ _______ _______ _____ _____    ______ ____
ROOT
ATOM      1  O   UNL     1     -11.575   6.520 -17.840  0.00  0.00    -0.619 OA
ATOM      2  N   UNL     1     -12.132   5.497 -18.371  0.00  0.00    -0.157 N 
ATOM      3  C   UNL     1     -12.629   5.583 -19.686  0.00  0.00    +0.292 A 
ATOM      4  C   UNL     1     -13.234   4.459 -20.278  0.00  0.00    +0.292 A 
ATOM      5  C   UNL     1     -13.764   4.578 -21.584  0.00  0.00    +0.086 A 
ATOM      6  C   UNL     1     -13.694   5.779 -22.290  0.00  0.00    +0.007 A 
ATOM      7  C   UNL     1     -13.086   6.885 -21.709  0.00  0.00    +0.007 A 
ATOM      8  N   UNL     1     -13.313   3.246 -19.562  0.00  0.00    -0.157 N 
ATOM      9  O   UNL     1     -13.882   2.234 -20.105  0.00  0.00    -0.619 OA
ATOM     10  C   UNL     1     -12.803   3.150 -18.259  0.00  0.00    +0.268 A 
ATOM     11  C   UNL     1     -12.556   6.788 -20.422  0.00  0.00    +0.086 A 
ATOM     12  C   UNL     1     -12.262   4.306 -17.645  0.00  0.00    +0.261 A 
ATOM     13  C   UNL     1     -11.788   4.353 -16.222  0.00  0.00    +0.130 C 
ENDROOT
BRANCH  10  14
ATOM     14  C   UNL     1     -13.031   1.806 -17.600  0.00  0.00    +0.150 C 
BRANCH  14  15
ATOM     15  C   UNL     1     -11.846   0.917 -17.294  0.00  0.00    -0.037 A 
ATOM     16  C   UNL     1     -10.560   1.301 -17.713  0.00  0.00    +0.004 A 
ATOM     17  C   UNL     1      -9.450   0.510 -17.422  0.00  0.00    +0.000 A 
ATOM     18  C   UNL     1      -9.607  -0.669 -16.698  0.00  0.00    +0.000 A 
ATOM     19  C   UNL     1     -10.873  -1.051 -16.256  0.00  0.00    +0.000 A 
ATOM     20  C   UNL     1     -11.988  -0.258 -16.543  0.00  0.00    +0.004 A 
ENDBRANCH  14  15
ENDBRANCH  10  14
TORSDOF 2
ENDMDL
MODEL 7
REMARK VINA RESULT:      -7.2      2.025      5.884
REMARK  Name = min_compound955.pdb
REMARK  3 active torsions:
REMARK  status: ('A' for Active; 'I' for Inactive)
REMARK    1  A    between atoms: _11  and  _19
REMARK    2  A    between atoms: _12  and  _20
REMARK    3  A    between atoms: _15  and  _20
REMARK                            x       y       z     vdW  Elec       q    Type
REMARK                         _______ _______ _______ _____ _____    ______ ____
ROOT
ATOM      1  O   UNL     1     -15.185   6.701 -15.329  0.00  0.00    -0.619 OA
ATOM      2  N   UNL     1     -15.212   5.422 -15.361  0.00  0.00    -0.157 N 
ATOM      3  C   UNL     1     -16.046   4.724 -14.465  0.00  0.00    +0.292 A 
ATOM      4  C   UNL     1     -16.087   3.318 -14.501  0.00  0.00    +0.292 A 
ATOM      5  C   UNL     1     -16.899   2.636 -13.565  0.00  0.00    +0.086 A 
ATOM      6  C   UNL     1     -17.656   3.327 -12.619  0.00  0.00    +0.007 A 
ATOM      7  C   UNL     1     -17.624   4.716 -12.592  0.00  0.00    +0.007 A 
ATOM      8  N   UNL     1     -15.317   2.617 -15.452  0.00  0.00    -0.157 N 
ATOM      9  O   UNL     1     -15.349   1.337 -15.463  0.00  0.00    -0.619 OA
ATOM     10  C   UNL     1     -14.499   3.308 -16.358  0.00  0.00    +0.268 A 
ATOM     11  C   UNL     1     -16.830   5.408 -13.506  0.00  0.00    +0.086 A 
ATOM     12  C   UNL     1     -14.408   4.718 -16.267  0.00  0.00    +0.261 A 
ATOM     13  C   UNL     1     -13.486   5.554 -17.107  0.00  0.00    +0.130 C 
ENDROOT
BRANCH  10  14
ATOM     14  C   UNL     1     -13.681   2.412 -17.264  0.00  0.00    +0.150 C 
BRANCH  14  15
ATOM     15  C   UNL     1     -12.465   1.703 -16.710  0.00  0.00    -0.037 A 
ATOM     16  C   UNL     1     -12.210   0.370 -17.072  0.00  0.00    +0.004 A 
ATOM     17  C   UNL     1     -11.083  -0.297 -16.592  0.00  0.00    +0.000 A 
ATOM     18  C   UNL     1     -10.190   0.364 -15.753  0.00  0.00    +0.000 A 
ATOM     19  C   UNL     1     -10.418   1.695 -15.403  0.00  0.00    +0.000 A 
ATOM     20  C   UNL     1     -11.545   2.366 -15.886  0.00  0.00    +0.004 A 
ENDBRANCH  14  15
ENDBRANCH  10  14
TORSDOF 2
ENDMDL
MODEL 8
REMARK VINA RESULT:      -7.2     12.798     15.129
REMARK  Name = min_compound955.pdb
REMARK  3 active torsions:
REMARK  status: ('A' for Active; 'I' for Inactive)
REMARK    1  A    between atoms: _11  and  _19
REMARK    2  A    between atoms: _12  and  _20
REMARK    3  A    between atoms: _15  and  _20
REMARK                            x       y       z     vdW  Elec       q    Type
REMARK                         _______ _______ _______ _____ _____    ______ ____
ROOT
ATOM      1  O   UNL     1     -17.896  -5.335  -2.622  0.00  0.00    -0.619 OA
ATOM      2  N   UNL     1     -16.710  -4.926  -2.376  0.00  0.00    -0.157 N 
ATOM      3  C   UNL     1     -15.687  -5.867  -2.141  0.00  0.00    +0.292 A 
ATOM      4  C   UNL     1     -14.378  -5.422  -1.878  0.00  0.00    +0.292 A 
ATOM      5  C   UNL     1     -13.375  -6.381  -1.604  0.00  0.00    +0.086 A 
ATOM      6  C   UNL     1     -13.658  -7.747  -1.594  0.00  0.00    +0.007 A 
ATOM      7  C   UNL     1     -14.949  -8.185  -1.865  0.00  0.00    +0.007 A 
ATOM      8  N   UNL     1     -14.091  -4.041  -1.881  0.00  0.00    -0.157 N 
ATOM      9  O   UNL     1     -12.899  -3.649  -1.623  0.00  0.00    -0.619 OA
ATOM     10  C   UNL     1     -15.102  -3.102  -2.132  0.00  0.00    +0.268 A 
ATOM     11  C   UNL     1     -15.952  -7.256  -2.139  0.00  0.00    +0.086 A 
ATOM     12  C   UNL     1     -16.430  -3.554  -2.323  0.00  0.00    +0.261 A 
ATOM     13  C   UNL     1     -17.609  -2.641  -2.490  0.00  0.00    +0.130 C 
ENDROOT
BRANCH  10  14
ATOM     14  C   UNL     1     -14.650  -1.660  -2.026  0.00  0.00    +0.150 C 
BRANCH  14  15
ATOM     15  C   UNL     1     -14.442  -0.851  -3.287  0.00  0.00    -0.037 A 
ATOM     16  C   UNL     1     -14.065   0.499  -3.194  0.00  0.00    +0.004 A 
ATOM     17  C   UNL     1     -13.846   1.259  -4.342  0.00  0.00    +0.000 A 
ATOM     18  C   UNL     1     -13.987   0.676  -5.599  0.00  0.00    +0.000 A 
ATOM     19  C   UNL     1     -14.337  -0.669  -5.706  0.00  0.00    +0.000 A 
ATOM     20  C   UNL     1     -14.555  -1.434  -4.557  0.00  0.00    +0.004 A 
ENDBRANCH  14  15
ENDBRANCH  10  14
TORSDOF 2
ENDMDL
MODEL 9
REMARK VINA RESULT:      -7.1      2.880      3.968
REMARK  Name = min_compound955.pdb
REMARK  3 active torsions:
REMARK  status: ('A' for Active; 'I' for Inactive)
REMARK    1  A    between atoms: _11  and  _19
REMARK    2  A    between atoms: _12  and  _20
REMARK    3  A    between atoms: _15  and  _20
REMARK                            x       y       z     vdW  Elec       q    Type
REMARK                         _______ _______ _______ _____ _____    ______ ____
ROOT
ATOM      1  O   UNL     1     -13.009   1.505 -19.586  0.00  0.00    -0.619 OA
ATOM      2  N   UNL     1     -12.458   2.206 -18.668  0.00  0.00    -0.157 N 
ATOM      3  C   UNL     1     -11.676   1.568 -17.684  0.00  0.00    +0.292 A 
ATOM      4  C   UNL     1     -11.060   2.335 -16.678  0.00  0.00    +0.292 A 
ATOM      5  C   UNL     1     -10.314   1.671 -15.677  0.00  0.00    +0.086 A 
ATOM      6  C   UNL     1     -10.177   0.283 -15.672  0.00  0.00    +0.007 A 
ATOM      7  C   UNL     1     -10.776  -0.472 -16.673  0.00  0.00    +0.007 A 
ATOM      8  N   UNL     1     -11.204   3.738 -16.676  0.00  0.00    -0.157 N 
ATOM      9  O   UNL     1     -10.653   4.423 -15.745  0.00  0.00    -0.619 OA
ATOM     10  C   UNL     1     -11.966   4.379 -17.664  0.00  0.00    +0.268 A 
ATOM     11  C   UNL     1     -11.515   0.163 -17.671  0.00  0.00    +0.086 A 
ATOM     12  C   UNL     1     -12.642   3.594 -18.630  0.00  0.00    +0.261 A 
ATOM     13  C   UNL     1     -13.571   4.158 -19.665  0.00  0.00    +0.130 C 
ENDROOT
BRANCH  10  14
ATOM     14  C   UNL     1     -12.085   5.878 -17.481  0.00  0.00    +0.150 C 
BRANCH  14  15
ATOM     15  C   UNL     1     -13.440   6.489 -17.208  0.00  0.00    -0.037 A 
ATOM     16  C   UNL     1     -13.779   7.722 -17.792  0.00  0.00    +0.004 A 
ATOM     17  C   UNL     1     -15.031   8.295 -17.573  0.00  0.00    +0.000 A 
ATOM     18  C   UNL     1     -15.967   7.637 -16.778  0.00  0.00    +0.000 A 
ATOM     19  C   UNL     1     -15.653   6.402 -16.211  0.00  0.00    +0.000 A 
ATOM     20  C   UNL     1     -14.400   5.825 -16.431  0.00  0.00    +0.004 A 
ENDBRANCH  14  15
ENDBRANCH  10  14
TORSDOF 2
ENDMDL
