MODEL 1
REMARK VINA RESULT:      -7.1      0.000      0.000
REMARK  Name = min_compound954.pdb
REMARK  6 active torsions:
REMARK  status: ('A' for Active; 'I' for Inactive)
REMARK    1  A    between atoms: _1  and  _4
REMARK    2  A    between atoms: _1  and  _14
REMARK    3  A    between atoms: _2  and  _3
REMARK    4  A    between atoms: _2  and  _15
REMARK    5  A    between atoms: _9  and  _12
REMARK    6  A    between atoms: _13  and  _16
REMARK                            x       y       z     vdW  Elec       q    Type
REMARK                         _______ _______ _______ _____ _____    ______ ____
ROOT
ATOM      1  C   UNL     1     -14.472   6.047 -19.388  0.00  0.00    +0.163 A 
ATOM      2  C   UNL     1     -14.224   4.701 -19.689  0.00  0.00    +0.067 A 
ATOM      3  C   UNL     1     -13.364   4.017 -18.834  0.00  0.00    +0.098 A 
ATOM      4  C   UNL     1     -12.907   2.693 -18.832  0.00  0.00    +0.204 C 
ATOM      5  C   UNL     1     -12.024   2.586 -17.695  0.00  0.00    +0.261 C 
ATOM      6  N   UNL     1     -11.986   3.764 -17.068  0.00  0.00    -0.209 N 
ATOM      7  O   UNL     1     -11.269   4.096 -16.054  0.00  0.00    -0.549 OA
ATOM      8  C   UNL     1     -12.751   4.604 -17.718  0.00  0.00    +0.226 A 
ATOM      9  C   UNL     1     -12.990   5.951 -17.404  0.00  0.00    +0.128 A 
ATOM     10  C   UNL     1     -13.878   6.643 -18.242  0.00  0.00    +0.168 A 
ENDROOT
BRANCH   5  11
ATOM     11  C   UNL     1     -11.264   1.295 -17.294  0.00  0.00    +0.051 A 
ATOM     12  C   UNL     1     -11.919   0.226 -16.670  0.00  0.00    +0.014 A 
ATOM     13  C   UNL     1     -11.231  -0.938 -16.303  0.00  0.00    +0.001 A 
ATOM     14  C   UNL     1      -9.869  -1.056 -16.560  0.00  0.00    +0.000 A 
ATOM     15  C   UNL     1      -9.199  -0.007 -17.182  0.00  0.00    +0.001 A 
ATOM     16  C   UNL     1      -9.892   1.156 -17.541  0.00  0.00    +0.014 A 
ENDBRANCH   5  11
BRANCH   1  17
ATOM     17  O   UNL     1     -15.280   6.863 -20.154  0.00  0.00    -0.491 OA
ATOM     18  C   UNL     1     -14.756   7.244 -21.418  0.00  0.00    +0.277 C 
ENDBRANCH   1  17
BRANCH   4  19
ATOM     19  O   UNL     1     -13.298   1.774 -19.711  0.00  0.00    -0.501 OA
ATOM     20  H   UNL     1     -13.871   1.082 -19.443  0.00  0.00    +0.292 HD
ENDBRANCH   4  19
BRANCH  10  21
ATOM     21  O   UNL     1     -14.112   7.965 -17.903  0.00  0.00    -0.491 OA
ATOM     22  C   UNL     1     -14.868   8.052 -16.700  0.00  0.00    +0.277 C 
ENDBRANCH  10  21
TORSDOF 4
ENDMDL
MODEL 2
REMARK VINA RESULT:      -7.0      0.598      2.589
REMARK  Name = min_compound954.pdb
REMARK  6 active torsions:
REMARK  status: ('A' for Active; 'I' for Inactive)
REMARK    1  A    between atoms: _1  and  _4
REMARK    2  A    between atoms: _1  and  _14
REMARK    3  A    between atoms: _2  and  _3
REMARK    4  A    between atoms: _2  and  _15
REMARK    5  A    between atoms: _9  and  _12
REMARK    6  A    between atoms: _13  and  _16
REMARK                            x       y       z     vdW  Elec       q    Type
REMARK                         _______ _______ _______ _____ _____    ______ ____
ROOT
ATOM      1  C   UNL     1     -13.806   6.862 -18.079  0.00  0.00    +0.163 A 
ATOM      2  C   UNL     1     -12.886   6.219 -17.242  0.00  0.00    +0.067 A 
ATOM      3  C   UNL     1     -12.629   4.877 -17.509  0.00  0.00    +0.098 A 
ATOM      4  C   UNL     1     -11.783   3.947 -16.891  0.00  0.00    +0.204 C 
ATOM      5  C   UNL     1     -11.963   2.711 -17.617  0.00  0.00    +0.261 C 
ATOM      6  N   UNL     1     -12.840   2.917 -18.602  0.00  0.00    -0.209 N 
ATOM      7  O   UNL     1     -13.315   2.054 -19.429  0.00  0.00    -0.549 OA
ATOM      8  C   UNL     1     -13.239   4.162 -18.550  0.00  0.00    +0.226 A 
ATOM      9  C   UNL     1     -14.164   4.793 -19.396  0.00  0.00    +0.128 A 
ATOM     10  C   UNL     1     -14.409   6.154 -19.155  0.00  0.00    +0.168 A 
ENDROOT
BRANCH   5  11
ATOM     11  C   UNL     1     -11.235   1.384 -17.283  0.00  0.00    +0.051 A 
ATOM     12  C   UNL     1     -11.911   0.308 -16.695  0.00  0.00    +0.014 A 
ATOM     13  C   UNL     1     -11.252  -0.889 -16.388  0.00  0.00    +0.001 A 
ATOM     14  C   UNL     1      -9.897  -1.034 -16.669  0.00  0.00    +0.000 A 
ATOM     15  C   UNL     1      -9.206   0.022 -17.255  0.00  0.00    +0.001 A 
ATOM     16  C   UNL     1      -9.871   1.218 -17.555  0.00  0.00    +0.014 A 
ENDBRANCH   5  11
BRANCH   1  17
ATOM     17  O   UNL     1     -14.184   8.181 -17.926  0.00  0.00    -0.491 OA
ATOM     18  C   UNL     1     -15.091   8.447 -16.866  0.00  0.00    +0.277 C 
ENDBRANCH   1  17
BRANCH   4  19
ATOM     19  O   UNL     1     -10.975   4.241 -15.876  0.00  0.00    -0.501 OA
ATOM     20  H   UNL     1     -10.151   4.658 -16.038  0.00  0.00    +0.292 HD
ENDBRANCH   4  19
BRANCH  10  21
ATOM     21  O   UNL     1     -15.312   6.759 -20.012  0.00  0.00    -0.491 OA
ATOM     22  C   UNL     1     -14.694   7.074 -21.256  0.00  0.00    +0.277 C 
ENDBRANCH  10  21
TORSDOF 4
ENDMDL
MODEL 3
REMARK VINA RESULT:      -6.5      2.256      3.065
REMARK  Name = min_compound954.pdb
REMARK  6 active torsions:
REMARK  status: ('A' for Active; 'I' for Inactive)
REMARK    1  A    between atoms: _1  and  _4
REMARK    2  A    between atoms: _1  and  _14
REMARK    3  A    between atoms: _2  and  _3
REMARK    4  A    between atoms: _2  and  _15
REMARK    5  A    between atoms: _9  and  _12
REMARK    6  A    between atoms: _13  and  _16
REMARK                            x       y       z     vdW  Elec       q    Type
REMARK                         _______ _______ _______ _____ _____    ______ ____
ROOT
ATOM      1  C   UNL     1     -15.225   6.755 -16.813  0.00  0.00    +0.163 A 
ATOM      2  C   UNL     1     -13.902   6.344 -17.018  0.00  0.00    +0.067 A 
ATOM      3  C   UNL     1     -13.629   4.993 -16.824  0.00  0.00    +0.098 A 
ATOM      4  C   UNL     1     -12.446   4.252 -16.941  0.00  0.00    +0.204 C 
ATOM      5  C   UNL     1     -12.798   2.894 -16.597  0.00  0.00    +0.261 C 
ATOM      6  N   UNL     1     -14.103   2.848 -16.318  0.00  0.00    -0.209 N 
ATOM      7  O   UNL     1     -14.786   1.839 -15.907  0.00  0.00    -0.549 OA
ATOM      8  C   UNL     1     -14.596   4.054 -16.439  0.00  0.00    +0.226 A 
ATOM      9  C   UNL     1     -15.926   4.450 -16.228  0.00  0.00    +0.128 A 
ATOM     10  C   UNL     1     -16.220   5.806 -16.450  0.00  0.00    +0.168 A 
ENDROOT
BRANCH   5  11
ATOM     11  C   UNL     1     -11.799   1.709 -16.573  0.00  0.00    +0.051 A 
ATOM     12  C   UNL     1     -10.866   1.561 -15.539  0.00  0.00    +0.014 A 
ATOM     13  C   UNL     1      -9.960   0.494 -15.520  0.00  0.00    +0.001 A 
ATOM     14  C   UNL     1      -9.974  -0.454 -16.538  0.00  0.00    +0.000 A 
ATOM     15  C   UNL     1     -10.894  -0.327 -17.574  0.00  0.00    +0.001 A 
ATOM     16  C   UNL     1     -11.794   0.745 -17.589  0.00  0.00    +0.014 A 
ENDBRANCH   5  11
BRANCH   1  17
ATOM     17  O   UNL     1     -15.645   8.063 -16.942  0.00  0.00    -0.491 OA
ATOM     18  C   UNL     1     -15.415   8.902 -15.817  0.00  0.00    +0.277 C 
ENDBRANCH   1  17
BRANCH   4  19
ATOM     19  O   UNL     1     -11.287   4.768 -17.342  0.00  0.00    -0.501 OA
ATOM     20  H   UNL     1     -10.484   4.467 -16.964  0.00  0.00    +0.292 HD
ENDBRANCH   4  19
BRANCH  10  21
ATOM     21  O   UNL     1     -17.540   6.171 -16.253  0.00  0.00    -0.491 OA
ATOM     22  C   UNL     1     -17.905   6.028 -14.884  0.00  0.00    +0.277 C 
ENDBRANCH  10  21
TORSDOF 4
ENDMDL
MODEL 4
REMARK VINA RESULT:      -6.4      2.235      2.758
REMARK  Name = min_compound954.pdb
REMARK  6 active torsions:
REMARK  status: ('A' for Active; 'I' for Inactive)
REMARK    1  A    between atoms: _1  and  _4
REMARK    2  A    between atoms: _1  and  _14
REMARK    3  A    between atoms: _2  and  _3
REMARK    4  A    between atoms: _2  and  _15
REMARK    5  A    between atoms: _9  and  _12
REMARK    6  A    between atoms: _13  and  _16
REMARK                            x       y       z     vdW  Elec       q    Type
REMARK                         _______ _______ _______ _____ _____    ______ ____
ROOT
ATOM      1  C   UNL     1     -16.261   5.861 -16.585  0.00  0.00    +0.163 A 
ATOM      2  C   UNL     1     -16.079   4.498 -16.316  0.00  0.00    +0.067 A 
ATOM      3  C   UNL     1     -14.785   4.001 -16.449  0.00  0.00    +0.098 A 
ATOM      4  C   UNL     1     -14.252   2.720 -16.261  0.00  0.00    +0.204 C 
ATOM      5  C   UNL     1     -12.845   2.832 -16.566  0.00  0.00    +0.261 C 
ATOM      6  N   UNL     1     -12.577   4.099 -16.892  0.00  0.00    -0.209 N 
ATOM      7  O   UNL     1     -11.458   4.591 -17.289  0.00  0.00    -0.549 OA
ATOM      8  C   UNL     1     -13.689   4.787 -16.835  0.00  0.00    +0.226 A 
ATOM      9  C   UNL     1     -13.856   6.153 -17.109  0.00  0.00    +0.128 A 
ATOM     10  C   UNL     1     -15.151   6.672 -16.949  0.00  0.00    +0.168 A 
ENDROOT
BRANCH   5  11
ATOM     11  C   UNL     1     -11.839   1.654 -16.509  0.00  0.00    +0.051 A 
ATOM     12  C   UNL     1     -10.822   1.607 -15.547  0.00  0.00    +0.014 A 
ATOM     13  C   UNL     1      -9.910   0.546 -15.499  0.00  0.00    +0.001 A 
ATOM     14  C   UNL     1     -10.002  -0.498 -16.415  0.00  0.00    +0.000 A 
ATOM     15  C   UNL     1     -11.007  -0.473 -17.378  0.00  0.00    +0.001 A 
ATOM     16  C   UNL     1     -11.912   0.595 -17.423  0.00  0.00    +0.014 A 
ENDBRANCH   5  11
BRANCH   1  17
ATOM     17  O   UNL     1     -17.486   6.493 -16.521  0.00  0.00    -0.491 OA
ATOM     18  C   UNL     1     -18.239   6.268 -15.337  0.00  0.00    +0.277 C 
ENDBRANCH   1  17
BRANCH   4  19
ATOM     19  O   UNL     1     -14.963   1.678 -15.836  0.00  0.00    -0.501 OA
ATOM     20  H   UNL     1     -15.865   1.597 -16.076  0.00  0.00    +0.292 HD
ENDBRANCH   4  19
BRANCH  10  21
ATOM     21  O   UNL     1     -15.289   8.024 -17.208  0.00  0.00    -0.491 OA
ATOM     22  C   UNL     1     -15.257   8.776 -15.999  0.00  0.00    +0.277 C 
ENDBRANCH  10  21
TORSDOF 4
ENDMDL
MODEL 5
REMARK VINA RESULT:      -6.3      2.077      3.369
REMARK  Name = min_compound954.pdb
REMARK  6 active torsions:
REMARK  status: ('A' for Active; 'I' for Inactive)
REMARK    1  A    between atoms: _1  and  _4
REMARK    2  A    between atoms: _1  and  _14
REMARK    3  A    between atoms: _2  and  _3
REMARK    4  A    between atoms: _2  and  _15
REMARK    5  A    between atoms: _9  and  _12
REMARK    6  A    between atoms: _13  and  _16
REMARK                            x       y       z     vdW  Elec       q    Type
REMARK                         _______ _______ _______ _____ _____    ______ ____
ROOT
ATOM      1  C   UNL     1     -15.868   7.302 -16.129  0.00  0.00    +0.163 A 
ATOM      2  C   UNL     1     -15.564   6.163 -15.373  0.00  0.00    +0.067 A 
ATOM      3  C   UNL     1     -14.600   5.304 -15.894  0.00  0.00    +0.098 A 
ATOM      4  C   UNL     1     -14.061   4.104 -15.415  0.00  0.00    +0.204 C 
ATOM      5  C   UNL     1     -13.105   3.678 -16.412  0.00  0.00    +0.261 C 
ATOM      6  N   UNL     1     -13.079   4.582 -17.394  0.00  0.00    -0.209 N 
ATOM      7  O   UNL     1     -12.410   4.536 -18.491  0.00  0.00    -0.549 OA
ATOM      8  C   UNL     1     -13.942   5.526 -17.113  0.00  0.00    +0.226 A 
ATOM      9  C   UNL     1     -14.236   6.662 -17.882  0.00  0.00    +0.128 A 
ATOM     10  C   UNL     1     -15.186   7.550 -17.352  0.00  0.00    +0.168 A 
ENDROOT
BRANCH   5  11
ATOM     11  C   UNL     1     -12.262   2.381 -16.319  0.00  0.00    +0.051 A 
ATOM     12  C   UNL     1     -11.040   2.351 -15.635  0.00  0.00    +0.014 A 
ATOM     13  C   UNL     1     -10.276   1.180 -15.556  0.00  0.00    +0.001 A 
ATOM     14  C   UNL     1     -10.725   0.009 -16.160  0.00  0.00    +0.000 A 
ATOM     15  C   UNL     1     -11.937   0.017 -16.843  0.00  0.00    +0.001 A 
ATOM     16  C   UNL     1     -12.694   1.192 -16.922  0.00  0.00    +0.014 A 
ENDBRANCH   5  11
BRANCH   1  17
ATOM     17  O   UNL     1     -16.818   8.232 -15.758  0.00  0.00    -0.491 OA
ATOM     18  C   UNL     1     -16.437   9.129 -14.724  0.00  0.00    +0.277 C 
ENDBRANCH   1  17
BRANCH   4  19
ATOM     19  O   UNL     1     -14.385   3.562 -14.244  0.00  0.00    -0.501 OA
ATOM     20  H   UNL     1     -15.051   3.955 -13.714  0.00  0.00    +0.292 HD
ENDBRANCH   4  19
BRANCH  10  21
ATOM     21  O   UNL     1     -15.448   8.672 -18.119  0.00  0.00    -0.491 OA
ATOM     22  C   UNL     1     -16.254   8.337 -19.245  0.00  0.00    +0.277 C 
ENDBRANCH  10  21
TORSDOF 4
ENDMDL
MODEL 6
REMARK VINA RESULT:      -6.1      2.009      2.392
REMARK  Name = min_compound954.pdb
REMARK  6 active torsions:
REMARK  status: ('A' for Active; 'I' for Inactive)
REMARK    1  A    between atoms: _1  and  _4
REMARK    2  A    between atoms: _1  and  _14
REMARK    3  A    between atoms: _2  and  _3
REMARK    4  A    between atoms: _2  and  _15
REMARK    5  A    between atoms: _9  and  _12
REMARK    6  A    between atoms: _13  and  _16
REMARK                            x       y       z     vdW  Elec       q    Type
REMARK                         _______ _______ _______ _____ _____    ______ ____
ROOT
ATOM      1  C   UNL     1     -15.528   7.292 -17.612  0.00  0.00    +0.163 A 
ATOM      2  C   UNL     1     -14.639   6.408 -18.236  0.00  0.00    +0.067 A 
ATOM      3  C   UNL     1     -14.164   5.350 -17.467  0.00  0.00    +0.098 A 
ATOM      4  C   UNL     1     -13.286   4.300 -17.762  0.00  0.00    +0.204 C 
ATOM      5  C   UNL     1     -13.175   3.527 -16.547  0.00  0.00    +0.261 C 
ATOM      6  N   UNL     1     -13.952   4.083 -15.614  0.00  0.00    -0.209 N 
ATOM      7  O   UNL     1     -14.080   3.733 -14.383  0.00  0.00    -0.549 OA
ATOM      8  C   UNL     1     -14.527   5.140 -16.128  0.00  0.00    +0.226 A 
ATOM      9  C   UNL     1     -15.416   6.018 -15.488  0.00  0.00    +0.128 A 
ATOM     10  C   UNL     1     -15.924   7.072 -16.264  0.00  0.00    +0.168 A 
ENDROOT
BRANCH   5  11
ATOM     11  C   UNL     1     -12.291   2.263 -16.389  0.00  0.00    +0.051 A 
ATOM     12  C   UNL     1     -12.693   1.023 -16.901  0.00  0.00    +0.014 A 
ATOM     13  C   UNL     1     -11.898  -0.120 -16.754  0.00  0.00    +0.001 A 
ATOM     14  C   UNL     1     -10.676  -0.042 -16.092  0.00  0.00    +0.000 A 
ATOM     15  C   UNL     1     -10.257   1.181 -15.578  0.00  0.00    +0.001 A 
ATOM     16  C   UNL     1     -11.060   2.319 -15.725  0.00  0.00    +0.014 A 
ENDBRANCH   5  11
BRANCH   1  17
ATOM     17  O   UNL     1     -16.064   8.401 -18.234  0.00  0.00    -0.491 OA
ATOM     18  C   UNL     1     -16.300   8.275 -19.630  0.00  0.00    +0.277 C 
ENDBRANCH   1  17
BRANCH   4  19
ATOM     19  O   UNL     1     -12.746   4.102 -18.963  0.00  0.00    -0.501 OA
ATOM     20  H   UNL     1     -13.136   4.489 -19.722  0.00  0.00    +0.292 HD
ENDBRANCH   4  19
BRANCH  10  21
ATOM     21  O   UNL     1     -16.812   7.914 -15.617  0.00  0.00    -0.491 OA
ATOM     22  C   UNL     1     -16.131   8.742 -14.680  0.00  0.00    +0.277 C 
ENDBRANCH  10  21
TORSDOF 4
ENDMDL
MODEL 7
REMARK VINA RESULT:      -6.1     11.096     12.052
REMARK  Name = min_compound954.pdb
REMARK  6 active torsions:
REMARK  status: ('A' for Active; 'I' for Inactive)
REMARK    1  A    between atoms: _1  and  _4
REMARK    2  A    between atoms: _1  and  _14
REMARK    3  A    between atoms: _2  and  _3
REMARK    4  A    between atoms: _2  and  _15
REMARK    5  A    between atoms: _9  and  _12
REMARK    6  A    between atoms: _13  and  _16
REMARK                            x       y       z     vdW  Elec       q    Type
REMARK                         _______ _______ _______ _____ _____    ______ ____
ROOT
ATOM      1  C   UNL     1     -17.800   3.006 -10.042  0.00  0.00    +0.163 A 
ATOM      2  C   UNL     1     -16.548   2.622  -9.545  0.00  0.00    +0.067 A 
ATOM      3  C   UNL     1     -16.518   2.112  -8.250  0.00  0.00    +0.098 A 
ATOM      4  C   UNL     1     -15.466   1.639  -7.456  0.00  0.00    +0.204 C 
ATOM      5  C   UNL     1     -16.065   1.255  -6.199  0.00  0.00    +0.261 C 
ATOM      6  N   UNL     1     -17.380   1.475  -6.267  0.00  0.00    -0.209 N 
ATOM      7  O   UNL     1     -18.254   1.324  -5.336  0.00  0.00    -0.549 OA
ATOM      8  C   UNL     1     -17.658   1.975  -7.444  0.00  0.00    +0.226 A 
ATOM      9  C   UNL     1     -18.919   2.357  -7.927  0.00  0.00    +0.128 A 
ATOM     10  C   UNL     1     -18.965   2.845  -9.244  0.00  0.00    +0.168 A 
ENDROOT
BRANCH   5  11
ATOM     11  C   UNL     1     -15.279   0.681  -4.992  0.00  0.00    +0.051 A 
ATOM     12  C   UNL     1     -15.509  -0.618  -4.522  0.00  0.00    +0.014 A 
ATOM     13  C   UNL     1     -14.803  -1.134  -3.428  0.00  0.00    +0.001 A 
ATOM     14  C   UNL     1     -13.844  -0.357  -2.785  0.00  0.00    +0.000 A 
ATOM     15  C   UNL     1     -13.598   0.935  -3.237  0.00  0.00    +0.001 A 
ATOM     16  C   UNL     1     -14.312   1.446  -4.328  0.00  0.00    +0.014 A 
ENDBRANCH   5  11
BRANCH   1  17
ATOM     17  O   UNL     1     -17.987   3.551 -11.296  0.00  0.00    -0.491 OA
ATOM     18  C   UNL     1     -17.200   2.993 -12.340  0.00  0.00    +0.277 C 
ENDBRANCH   1  17
BRANCH   4  19
ATOM     19  O   UNL     1     -14.206   1.550  -7.874  0.00  0.00    -0.501 OA
ATOM     20  H   UNL     1     -13.917   0.787  -8.336  0.00  0.00    +0.292 HD
ENDBRANCH   4  19
BRANCH  10  21
ATOM     21  O   UNL     1     -20.221   3.199  -9.705  0.00  0.00    -0.491 OA
ATOM     22  C   UNL     1     -20.672   4.394  -9.075  0.00  0.00    +0.277 C 
ENDBRANCH  10  21
TORSDOF 4
ENDMDL
MODEL 8
REMARK VINA RESULT:      -5.9      8.954     10.396
REMARK  Name = min_compound954.pdb
REMARK  6 active torsions:
REMARK  status: ('A' for Active; 'I' for Inactive)
REMARK    1  A    between atoms: _1  and  _4
REMARK    2  A    between atoms: _1  and  _14
REMARK    3  A    between atoms: _2  and  _3
REMARK    4  A    between atoms: _2  and  _15
REMARK    5  A    between atoms: _9  and  _12
REMARK    6  A    between atoms: _13  and  _16
REMARK                            x       y       z     vdW  Elec       q    Type
REMARK                         _______ _______ _______ _____ _____    ______ ____
ROOT
ATOM      1  C   UNL     1     -18.106   7.266  -9.536  0.00  0.00    +0.163 A 
ATOM      2  C   UNL     1     -17.971   6.452  -8.404  0.00  0.00    +0.067 A 
ATOM      3  C   UNL     1     -17.477   5.167  -8.613  0.00  0.00    +0.098 A 
ATOM      4  C   UNL     1     -17.216   4.112  -7.731  0.00  0.00    +0.204 C 
ATOM      5  C   UNL     1     -16.724   3.028  -8.550  0.00  0.00    +0.261 C 
ATOM      6  N   UNL     1     -16.685   3.436  -9.821  0.00  0.00    -0.209 N 
ATOM      7  O   UNL     1     -16.369   2.749 -10.860  0.00  0.00    -0.549 OA
ATOM      8  C   UNL     1     -17.122   4.668  -9.875  0.00  0.00    +0.226 A 
ATOM      9  C   UNL     1     -17.253   5.472 -11.018  0.00  0.00    +0.128 A 
ATOM     10  C   UNL     1     -17.722   6.780 -10.816  0.00  0.00    +0.168 A 
ENDROOT
BRANCH   5  11
ATOM     11  C   UNL     1     -16.314   1.635  -8.007  0.00  0.00    +0.051 A 
ATOM     12  C   UNL     1     -15.090   1.437  -7.355  0.00  0.00    +0.014 A 
ATOM     13  C   UNL     1     -14.717   0.178  -6.870  0.00  0.00    +0.001 A 
ATOM     14  C   UNL     1     -15.568  -0.912  -7.024  0.00  0.00    +0.000 A 
ATOM     15  C   UNL     1     -16.790  -0.737  -7.666  0.00  0.00    +0.001 A 
ATOM     16  C   UNL     1     -17.154   0.525  -8.153  0.00  0.00    +0.014 A 
ENDBRANCH   5  11
BRANCH   1  17
ATOM     17  O   UNL     1     -18.605   8.553  -9.494  0.00  0.00    -0.491 OA
ATOM     18  C   UNL     1     -19.977   8.675  -9.146  0.00  0.00    +0.277 C 
ENDBRANCH   1  17
BRANCH   4  19
ATOM     19  O   UNL     1     -17.373   4.194  -6.412  0.00  0.00    -0.501 OA
ATOM     20  H   UNL     1     -16.684   3.918  -5.840  0.00  0.00    +0.292 HD
ENDBRANCH   4  19
BRANCH  10  21
ATOM     21  O   UNL     1     -17.827   7.560 -11.954  0.00  0.00    -0.491 OA
ATOM     22  C   UNL     1     -17.142   6.954 -13.046  0.00  0.00    +0.277 C 
ENDBRANCH  10  21
TORSDOF 4
ENDMDL
MODEL 9
REMARK VINA RESULT:      -5.9      1.886      3.152
REMARK  Name = min_compound954.pdb
REMARK  6 active torsions:
REMARK  status: ('A' for Active; 'I' for Inactive)
REMARK    1  A    between atoms: _1  and  _4
REMARK    2  A    between atoms: _1  and  _14
REMARK    3  A    between atoms: _2  and  _3
REMARK    4  A    between atoms: _2  and  _15
REMARK    5  A    between atoms: _9  and  _12
REMARK    6  A    between atoms: _13  and  _16
REMARK                            x       y       z     vdW  Elec       q    Type
REMARK                         _______ _______ _______ _____ _____    ______ ____
ROOT
ATOM      1  C   UNL     1     -16.137   5.646 -17.955  0.00  0.00    +0.163 A 
ATOM      2  C   UNL     1     -15.455   5.118 -16.851  0.00  0.00    +0.067 A 
ATOM      3  C   UNL     1     -14.567   4.076 -17.103  0.00  0.00    +0.098 A 
ATOM      4  C   UNL     1     -13.735   3.333 -16.258  0.00  0.00    +0.204 C 
ATOM      5  C   UNL     1     -13.061   2.380 -17.109  0.00  0.00    +0.261 C 
ATOM      6  N   UNL     1     -13.462   2.572 -18.368  0.00  0.00    -0.209 N 
ATOM      7  O   UNL     1     -13.146   1.888 -19.409  0.00  0.00    -0.549 OA
ATOM      8  C   UNL     1     -14.337   3.545 -18.381  0.00  0.00    +0.226 A 
ATOM      9  C   UNL     1     -15.014   4.062 -19.497  0.00  0.00    +0.128 A 
ATOM     10  C   UNL     1     -15.890   5.133 -19.259  0.00  0.00    +0.168 A 
ENDROOT
BRANCH   5  11
ATOM     11  C   UNL     1     -12.040   1.325 -16.609  0.00  0.00    +0.051 A 
ATOM     12  C   UNL     1     -10.839   1.705 -15.997  0.00  0.00    +0.014 A 
ATOM     13  C   UNL     1      -9.915   0.752 -15.550  0.00  0.00    +0.001 A 
ATOM     14  C   UNL     1     -10.179  -0.605 -15.703  0.00  0.00    +0.000 A 
ATOM     15  C   UNL     1     -11.368  -1.004 -16.306  0.00  0.00    +0.001 A 
ATOM     16  C   UNL     1     -12.286  -0.046 -16.755  0.00  0.00    +0.014 A 
ENDBRANCH   5  11
BRANCH   1  17
ATOM     17  O   UNL     1     -17.066   6.662 -17.863  0.00  0.00    -0.491 OA
ATOM     18  C   UNL     1     -16.544   7.959 -17.610  0.00  0.00    +0.277 C 
ENDBRANCH   1  17
BRANCH   4  19
ATOM     19  O   UNL     1     -13.615   3.559 -14.951  0.00  0.00    -0.501 OA
ATOM     20  H   UNL     1     -14.277   4.041 -14.496  0.00  0.00    +0.292 HD
ENDBRANCH   4  19
BRANCH  10  21
ATOM     21  O   UNL     1     -16.533   5.638 -20.375  0.00  0.00    -0.491 OA
ATOM     22  C   UNL     1     -16.524   4.688 -21.436  0.00  0.00    +0.277 C 
ENDBRANCH  10  21
TORSDOF 4
ENDMDL
