MODEL 1
REMARK VINA RESULT:      -7.3      0.000      0.000
REMARK  Name = min_compound963.pdb
REMARK  3 active torsions:
REMARK  status: ('A' for Active; 'I' for Inactive)
REMARK    1  A    between atoms: _7  and  _9
REMARK    2  A    between atoms: _11  and  _18
REMARK    3  A    between atoms: _15  and  _16
REMARK                            x       y       z     vdW  Elec       q    Type
REMARK                         _______ _______ _______ _____ _____    ______ ____
ROOT
ATOM      1  C   UNL     1     -14.930   1.011  -6.545  0.00  0.00    +0.250 C 
ATOM      2  N   UNL     1     -16.222   1.414  -6.815  0.00  0.00    -0.281 N 
ATOM      3  H   UNL     1     -16.925   1.203  -6.119  0.00  0.00    +0.155 HD
ATOM      4  O   UNL     1     -13.972   1.195  -7.291  0.00  0.00    -0.270 OA
ENDROOT
BRANCH   1  10
ATOM      5 CL   UNL     1     -14.046  -2.283  -1.553  0.00  0.00    -0.083 Cl
ATOM      6  C   UNL     1     -14.285  -1.314  -2.952  0.00  0.00    +0.042 A 
ATOM      7  C   UNL     1     -14.018   0.051  -2.904  0.00  0.00    +0.040 A 
ATOM      8  C   UNL     1     -14.209   0.855  -4.040  0.00  0.00    +0.054 A 
ATOM      9 CL   UNL     1     -13.832   2.531  -3.819  0.00  0.00    -0.083 Cl
ATOM     10  C   UNL     1     -14.673   0.294  -5.244  0.00  0.00    +0.055 A 
ATOM     11  C   UNL     1     -14.935  -1.095  -5.258  0.00  0.00    +0.016 A 
ATOM     12  C   UNL     1     -14.744  -1.893  -4.126  0.00  0.00    +0.021 A 
ENDBRANCH   1  10
BRANCH   2  13
ATOM     13  C   UNL     1     -16.701   2.096  -7.956  0.00  0.00    +0.035 A 
ATOM     14  C   UNL     1     -18.079   2.017  -8.208  0.00  0.00    +0.023 A 
ATOM     15  C   UNL     1     -18.644   2.658  -9.312  0.00  0.00    +0.003 A 
ATOM     16  C   UNL     1     -17.836   3.387 -10.180  0.00  0.00    +0.017 A 
ATOM     17  C   UNL     1     -16.464   3.473  -9.941  0.00  0.00    +0.026 A 
ATOM     18  C   UNL     1     -15.899   2.830  -8.833  0.00  0.00    +0.040 A 
BRANCH  17  19
ATOM     19  C   UNL     1     -15.632   4.223 -10.834  0.00  0.00    -0.070 C 
ATOM     20  C   UNL     1     -14.937   4.854 -11.582  0.00  0.00    +0.009 C 
ENDBRANCH  17  19
ENDBRANCH   2  13
TORSDOF 3
ENDMDL
MODEL 2
REMARK VINA RESULT:      -7.2      8.091     10.383
REMARK  Name = min_compound963.pdb
REMARK  3 active torsions:
REMARK  status: ('A' for Active; 'I' for Inactive)
REMARK    1  A    between atoms: _7  and  _9
REMARK    2  A    between atoms: _11  and  _18
REMARK    3  A    between atoms: _15  and  _16
REMARK                            x       y       z     vdW  Elec       q    Type
REMARK                         _______ _______ _______ _____ _____    ______ ____
ROOT
ATOM      1  C   UNL     1     -14.856   3.284 -15.434  0.00  0.00    +0.250 C 
ATOM      2  N   UNL     1     -13.556   3.571 -15.071  0.00  0.00    -0.281 N 
ATOM      3  H   UNL     1     -13.422   4.105 -14.222  0.00  0.00    +0.155 HD
ATOM      4  O   UNL     1     -15.176   2.647 -16.434  0.00  0.00    -0.270 OA
ENDROOT
BRANCH   1  10
ATOM      5 CL   UNL     1     -19.371   4.826 -11.719  0.00  0.00    -0.083 Cl
ATOM      6  C   UNL     1     -18.082   4.426 -12.786  0.00  0.00    +0.042 A 
ATOM      7  C   UNL     1     -17.442   5.430 -13.506  0.00  0.00    +0.040 A 
ATOM      8  C   UNL     1     -16.388   5.118 -14.381  0.00  0.00    +0.054 A 
ATOM      9 CL   UNL     1     -15.696   6.476 -15.202  0.00  0.00    -0.083 Cl
ATOM     10  C   UNL     1     -15.964   3.786 -14.542  0.00  0.00    +0.055 A 
ATOM     11  C   UNL     1     -16.636   2.792 -13.796  0.00  0.00    +0.016 A 
ATOM     12  C   UNL     1     -17.684   3.105 -12.926  0.00  0.00    +0.021 A 
ENDBRANCH   1  10
BRANCH   2  13
ATOM     13  C   UNL     1     -12.365   3.211 -15.741  0.00  0.00    +0.035 A 
ATOM     14  C   UNL     1     -11.750   4.206 -16.516  0.00  0.00    +0.023 A 
ATOM     15  C   UNL     1     -10.569   3.943 -17.214  0.00  0.00    +0.003 A 
ATOM     16  C   UNL     1      -9.989   2.679 -17.145  0.00  0.00    +0.017 A 
ATOM     17  C   UNL     1     -10.591   1.681 -16.377  0.00  0.00    +0.026 A 
ATOM     18  C   UNL     1     -11.775   1.947 -15.678  0.00  0.00    +0.040 A 
BRANCH  17  19
ATOM     19  C   UNL     1      -9.994   0.382 -16.306  0.00  0.00    -0.070 C 
ATOM     20  C   UNL     1      -9.495  -0.709 -16.245  0.00  0.00    +0.009 C 
ENDBRANCH  17  19
ENDBRANCH   2  13
TORSDOF 3
ENDMDL
MODEL 3
REMARK VINA RESULT:      -7.1      2.225      2.946
REMARK  Name = min_compound963.pdb
REMARK  3 active torsions:
REMARK  status: ('A' for Active; 'I' for Inactive)
REMARK    1  A    between atoms: _7  and  _9
REMARK    2  A    between atoms: _11  and  _18
REMARK    3  A    between atoms: _15  and  _16
REMARK                            x       y       z     vdW  Elec       q    Type
REMARK                         _______ _______ _______ _____ _____    ______ ____
ROOT
ATOM      1  C   UNL     1     -16.615   1.565  -8.037  0.00  0.00    +0.250 C 
ATOM      2  N   UNL     1     -16.609   2.746  -8.752  0.00  0.00    -0.281 N 
ATOM      3  H   UNL     1     -16.081   3.516  -8.363  0.00  0.00    +0.155 HD
ATOM      4  O   UNL     1     -17.208   0.546  -8.379  0.00  0.00    -0.270 OA
ENDROOT
BRANCH   1  10
ATOM      5 CL   UNL     1     -13.168   1.111  -3.090  0.00  0.00    -0.083 Cl
ATOM      6  C   UNL     1     -14.174   1.262  -4.476  0.00  0.00    +0.042 A 
ATOM      7  C   UNL     1     -15.360   1.987  -4.396  0.00  0.00    +0.040 A 
ATOM      8  C   UNL     1     -16.192   2.119  -5.520  0.00  0.00    +0.054 A 
ATOM      9 CL   UNL     1     -17.628   3.049  -5.258  0.00  0.00    -0.083 Cl
ATOM     10  C   UNL     1     -15.840   1.521  -6.744  0.00  0.00    +0.055 A 
ATOM     11  C   UNL     1     -14.630   0.792  -6.790  0.00  0.00    +0.016 A 
ATOM     12  C   UNL     1     -13.804   0.662  -5.670  0.00  0.00    +0.021 A 
ENDBRANCH   1  10
BRANCH   2  13
ATOM     13  C   UNL     1     -17.254   3.025  -9.977  0.00  0.00    +0.035 A 
ATOM     14  C   UNL     1     -18.511   3.645  -9.903  0.00  0.00    +0.023 A 
ATOM     15  C   UNL     1     -19.224   3.961 -11.061  0.00  0.00    +0.003 A 
ATOM     16  C   UNL     1     -18.688   3.658 -12.310  0.00  0.00    +0.017 A 
ATOM     17  C   UNL     1     -17.439   3.041 -12.397  0.00  0.00    +0.026 A 
ATOM     18  C   UNL     1     -16.726   2.726 -11.234  0.00  0.00    +0.040 A 
BRANCH  17  19
ATOM     19  C   UNL     1     -16.888   2.730 -13.682  0.00  0.00    -0.070 C 
ATOM     20  C   UNL     1     -16.428   2.468 -14.759  0.00  0.00    +0.009 C 
ENDBRANCH  17  19
ENDBRANCH   2  13
TORSDOF 3
ENDMDL
MODEL 4
REMARK VINA RESULT:      -7.0      7.861     10.168
REMARK  Name = min_compound963.pdb
REMARK  3 active torsions:
REMARK  status: ('A' for Active; 'I' for Inactive)
REMARK    1  A    between atoms: _7  and  _9
REMARK    2  A    between atoms: _11  and  _18
REMARK    3  A    between atoms: _15  and  _16
REMARK                            x       y       z     vdW  Elec       q    Type
REMARK                         _______ _______ _______ _____ _____    ______ ____
ROOT
ATOM      1  C   UNL     1     -13.253   3.753 -15.833  0.00  0.00    +0.250 C 
ATOM      2  N   UNL     1     -14.054   3.487 -14.742  0.00  0.00    -0.281 N 
ATOM      3  H   UNL     1     -13.951   2.580 -14.305  0.00  0.00    +0.155 HD
ATOM      4  O   UNL     1     -13.263   4.805 -16.467  0.00  0.00    -0.270 OA
ENDROOT
BRANCH   1  10
ATOM      5 CL   UNL     1      -9.799  -0.866 -17.650  0.00  0.00    -0.083 Cl
ATOM      6  C   UNL     1     -10.749   0.471 -17.133  0.00  0.00    +0.042 A 
ATOM      7  C   UNL     1     -10.145   1.705 -16.910  0.00  0.00    +0.040 A 
ATOM      8  C   UNL     1     -10.908   2.806 -16.487  0.00  0.00    +0.054 A 
ATOM      9 CL   UNL     1     -10.011   4.269 -16.254  0.00  0.00    -0.083 Cl
ATOM     10  C   UNL     1     -12.295   2.679 -16.283  0.00  0.00    +0.055 A 
ATOM     11  C   UNL     1     -12.875   1.412 -16.518  0.00  0.00    +0.016 A 
ATOM     12  C   UNL     1     -12.113   0.318 -16.939  0.00  0.00    +0.021 A 
ENDBRANCH   1  10
BRANCH   2  13
ATOM     13  C   UNL     1     -15.018   4.329 -14.143  0.00  0.00    +0.035 A 
ATOM     14  C   UNL     1     -15.870   5.031 -15.009  0.00  0.00    +0.023 A 
ATOM     15  C   UNL     1     -16.853   5.887 -14.509  0.00  0.00    +0.003 A 
ATOM     16  C   UNL     1     -16.997   6.051 -13.134  0.00  0.00    +0.017 A 
ATOM     17  C   UNL     1     -16.156   5.358 -12.262  0.00  0.00    +0.026 A 
ATOM     18  C   UNL     1     -15.170   4.500 -12.766  0.00  0.00    +0.040 A 
BRANCH  17  19
ATOM     19  C   UNL     1     -16.303   5.527 -10.848  0.00  0.00    -0.070 C 
ATOM     20  C   UNL     1     -16.426   5.667  -9.661  0.00  0.00    +0.009 C 
ENDBRANCH  17  19
ENDBRANCH   2  13
TORSDOF 3
ENDMDL
MODEL 5
REMARK VINA RESULT:      -6.9     10.684     11.224
REMARK  Name = min_compound963.pdb
REMARK  3 active torsions:
REMARK  status: ('A' for Active; 'I' for Inactive)
REMARK    1  A    between atoms: _7  and  _9
REMARK    2  A    between atoms: _11  and  _18
REMARK    3  A    between atoms: _15  and  _16
REMARK                            x       y       z     vdW  Elec       q    Type
REMARK                         _______ _______ _______ _____ _____    ______ ____
ROOT
ATOM      1  C   UNL     1     -13.428   3.732 -16.431  0.00  0.00    +0.250 C 
ATOM      2  N   UNL     1     -13.152   4.779 -17.287  0.00  0.00    -0.281 N 
ATOM      3  H   UNL     1     -12.285   4.732 -17.806  0.00  0.00    +0.155 HD
ATOM      4  O   UNL     1     -14.438   3.647 -15.737  0.00  0.00    -0.270 OA
ENDROOT
BRANCH   1  10
ATOM      5 CL   UNL     1      -9.756  -1.066 -16.203  0.00  0.00    -0.083 Cl
ATOM      6  C   UNL     1     -10.770   0.322 -16.257  0.00  0.00    +0.042 A 
ATOM      7  C   UNL     1     -10.251   1.572 -15.934  0.00  0.00    +0.040 A 
ATOM      8  C   UNL     1     -11.067   2.714 -15.973  0.00  0.00    +0.054 A 
ATOM      9 CL   UNL     1     -10.274   4.192 -15.544  0.00  0.00    -0.083 Cl
ATOM     10  C   UNL     1     -12.422   2.612 -16.339  0.00  0.00    +0.055 A 
ATOM     11  C   UNL     1     -12.917   1.328 -16.661  0.00  0.00    +0.016 A 
ATOM     12  C   UNL     1     -12.102   0.193 -16.621  0.00  0.00    +0.021 A 
ENDBRANCH   1  10
BRANCH   2  13
ATOM     13  C   UNL     1     -13.935   5.927 -17.540  0.00  0.00    +0.035 A 
ATOM     14  C   UNL     1     -14.306   6.159 -18.873  0.00  0.00    +0.023 A 
ATOM     15  C   UNL     1     -15.079   7.269 -19.219  0.00  0.00    +0.003 A 
ATOM     16  C   UNL     1     -15.491   8.163 -18.234  0.00  0.00    +0.017 A 
ATOM     17  C   UNL     1     -15.128   7.943 -16.904  0.00  0.00    +0.026 A 
ATOM     18  C   UNL     1     -14.353   6.829 -16.559  0.00  0.00    +0.040 A 
BRANCH  17  19
ATOM     19  C   UNL     1     -15.552   8.862 -15.890  0.00  0.00    -0.070 C 
ATOM     20  C   UNL     1     -15.909   9.633 -15.042  0.00  0.00    +0.009 C 
ENDBRANCH  17  19
ENDBRANCH   2  13
TORSDOF 3
ENDMDL
MODEL 6
REMARK VINA RESULT:      -6.9      8.974     10.369
REMARK  Name = min_compound963.pdb
REMARK  3 active torsions:
REMARK  status: ('A' for Active; 'I' for Inactive)
REMARK    1  A    between atoms: _7  and  _9
REMARK    2  A    between atoms: _11  and  _18
REMARK    3  A    between atoms: _15  and  _16
REMARK                            x       y       z     vdW  Elec       q    Type
REMARK                         _______ _______ _______ _____ _____    ______ ____
ROOT
ATOM      1  C   UNL     1     -13.952   2.759 -16.347  0.00  0.00    +0.250 C 
ATOM      2  N   UNL     1     -14.192   3.188 -15.057  0.00  0.00    -0.281 N 
ATOM      3  H   UNL     1     -13.449   3.058 -14.383  0.00  0.00    +0.155 HD
ATOM      4  O   UNL     1     -14.755   2.848 -17.272  0.00  0.00    -0.270 OA
ENDROOT
BRANCH   1  10
ATOM      5 CL   UNL     1      -8.804  -0.182 -17.533  0.00  0.00    -0.083 Cl
ATOM      6  C   UNL     1     -10.248   0.689 -17.196  0.00  0.00    +0.042 A 
ATOM      7  C   UNL     1     -10.212   2.076 -17.090  0.00  0.00    +0.040 A 
ATOM      8  C   UNL     1     -11.384   2.801 -16.815  0.00  0.00    +0.054 A 
ATOM      9 CL   UNL     1     -11.173   4.516 -16.714  0.00  0.00    -0.083 Cl
ATOM     10  C   UNL     1     -12.612   2.135 -16.644  0.00  0.00    +0.055 A 
ATOM     11  C   UNL     1     -12.612   0.727 -16.759  0.00  0.00    +0.016 A 
ATOM     12  C   UNL     1     -11.445   0.008 -17.032  0.00  0.00    +0.021 A 
ENDBRANCH   1  10
BRANCH   2  13
ATOM     13  C   UNL     1     -15.360   3.796 -14.544  0.00  0.00    +0.035 A 
ATOM     14  C   UNL     1     -16.303   2.947 -13.945  0.00  0.00    +0.023 A 
ATOM     15  C   UNL     1     -17.488   3.458 -13.410  0.00  0.00    +0.003 A 
ATOM     16  C   UNL     1     -17.744   4.825 -13.468  0.00  0.00    +0.017 A 
ATOM     17  C   UNL     1     -16.813   5.679 -14.062  0.00  0.00    +0.026 A 
ATOM     18  C   UNL     1     -15.626   5.166 -14.598  0.00  0.00    +0.040 A 
BRANCH  17  19
ATOM     19  C   UNL     1     -17.076   7.086 -14.122  0.00  0.00    -0.070 C 
ATOM     20  C   UNL     1     -17.296   8.265 -14.170  0.00  0.00    +0.009 C 
ENDBRANCH  17  19
ENDBRANCH   2  13
TORSDOF 3
ENDMDL
MODEL 7
REMARK VINA RESULT:      -6.8      7.849     10.504
REMARK  Name = min_compound963.pdb
REMARK  3 active torsions:
REMARK  status: ('A' for Active; 'I' for Inactive)
REMARK    1  A    between atoms: _7  and  _9
REMARK    2  A    between atoms: _11  and  _18
REMARK    3  A    between atoms: _15  and  _16
REMARK                            x       y       z     vdW  Elec       q    Type
REMARK                         _______ _______ _______ _____ _____    ______ ____
ROOT
ATOM      1  C   UNL     1     -14.400   3.668 -15.075  0.00  0.00    +0.250 C 
ATOM      2  N   UNL     1     -13.046   3.931 -15.019  0.00  0.00    -0.281 N 
ATOM      3  H   UNL     1     -12.745   4.662 -14.387  0.00  0.00    +0.155 HD
ATOM      4  O   UNL     1     -14.915   2.814 -15.791  0.00  0.00    -0.270 OA
ENDROOT
BRANCH   1  10
ATOM      5 CL   UNL     1     -17.795   6.790 -11.165  0.00  0.00    -0.083 Cl
ATOM      6  C   UNL     1     -16.852   5.916 -12.307  0.00  0.00    +0.042 A 
ATOM      7  C   UNL     1     -17.167   5.982 -13.661  0.00  0.00    +0.040 A 
ATOM      8  C   UNL     1     -16.406   5.273 -14.605  0.00  0.00    +0.054 A 
ATOM      9 CL   UNL     1     -16.924   5.458 -16.247  0.00  0.00    -0.083 Cl
ATOM     10  C   UNL     1     -15.313   4.485 -14.197  0.00  0.00    +0.055 A 
ATOM     11  C   UNL     1     -15.022   4.441 -12.815  0.00  0.00    +0.016 A 
ATOM     12  C   UNL     1     -15.781   5.147 -11.877  0.00  0.00    +0.021 A 
ENDBRANCH   1  10
BRANCH   2  13
ATOM     13  C   UNL     1     -12.006   3.303 -15.741  0.00  0.00    +0.035 A 
ATOM     14  C   UNL     1     -11.384   4.062 -16.743  0.00  0.00    +0.023 A 
ATOM     15  C   UNL     1     -10.347   3.526 -17.508  0.00  0.00    +0.003 A 
ATOM     16  C   UNL     1      -9.918   2.221 -17.279  0.00  0.00    +0.017 A 
ATOM     17  C   UNL     1     -10.529   1.456 -16.285  0.00  0.00    +0.026 A 
ATOM     18  C   UNL     1     -11.569   1.995 -15.519  0.00  0.00    +0.040 A 
BRANCH  17  19
ATOM     19  C   UNL     1     -10.088   0.114 -16.049  0.00  0.00    -0.070 C 
ATOM     20  C   UNL     1      -9.720  -1.012 -15.850  0.00  0.00    +0.009 C 
ENDBRANCH  17  19
ENDBRANCH   2  13
TORSDOF 3
ENDMDL
MODEL 8
REMARK VINA RESULT:      -6.7      8.363     12.281
REMARK  Name = min_compound963.pdb
REMARK  3 active torsions:
REMARK  status: ('A' for Active; 'I' for Inactive)
REMARK    1  A    between atoms: _7  and  _9
REMARK    2  A    between atoms: _11  and  _18
REMARK    3  A    between atoms: _15  and  _16
REMARK                            x       y       z     vdW  Elec       q    Type
REMARK                         _______ _______ _______ _____ _____    ______ ____
ROOT
ATOM      1  C   UNL     1     -13.420   4.388 -16.616  0.00  0.00    +0.250 C 
ATOM      2  N   UNL     1     -14.682   4.715 -16.161  0.00  0.00    -0.281 N 
ATOM      3  H   UNL     1     -15.185   5.427 -16.674  0.00  0.00    +0.155 HD
ATOM      4  O   UNL     1     -12.689   3.547 -16.100  0.00  0.00    -0.270 OA
ENDROOT
BRANCH   1  10
ATOM      5 CL   UNL     1     -11.204   7.668 -21.187  0.00  0.00    -0.083 Cl
ATOM      6  C   UNL     1     -11.844   6.706 -19.913  0.00  0.00    +0.042 A 
ATOM      7  C   UNL     1     -12.385   5.456 -20.193  0.00  0.00    +0.040 A 
ATOM      8  C   UNL     1     -12.912   4.659 -19.163  0.00  0.00    +0.054 A 
ATOM      9 CL   UNL     1     -13.547   3.132 -19.674  0.00  0.00    -0.083 Cl
ATOM     10  C   UNL     1     -12.900   5.114 -17.831  0.00  0.00    +0.055 A 
ATOM     11  C   UNL     1     -12.342   6.388 -17.582  0.00  0.00    +0.016 A 
ATOM     12  C   UNL     1     -11.820   7.179 -18.609  0.00  0.00    +0.021 A 
ENDBRANCH   1  10
BRANCH   2  13
ATOM     13  C   UNL     1     -15.375   4.178 -15.054  0.00  0.00    +0.035 A 
ATOM     14  C   UNL     1     -16.195   3.066 -15.300  0.00  0.00    +0.023 A 
ATOM     15  C   UNL     1     -16.919   2.467 -14.267  0.00  0.00    +0.003 A 
ATOM     16  C   UNL     1     -16.831   2.973 -12.973  0.00  0.00    +0.017 A 
ATOM     17  C   UNL     1     -16.019   4.078 -12.715  0.00  0.00    +0.026 A 
ATOM     18  C   UNL     1     -15.293   4.678 -13.752  0.00  0.00    +0.040 A 
BRANCH  17  19
ATOM     19  C   UNL     1     -15.928   4.599 -11.384  0.00  0.00    -0.070 C 
ATOM     20  C   UNL     1     -15.854   5.035 -10.268  0.00  0.00    +0.009 C 
ENDBRANCH  17  19
ENDBRANCH   2  13
TORSDOF 3
ENDMDL
MODEL 9
REMARK VINA RESULT:      -6.7     10.763     11.608
REMARK  Name = min_compound963.pdb
REMARK  3 active torsions:
REMARK  status: ('A' for Active; 'I' for Inactive)
REMARK    1  A    between atoms: _7  and  _9
REMARK    2  A    between atoms: _11  and  _18
REMARK    3  A    between atoms: _15  and  _16
REMARK                            x       y       z     vdW  Elec       q    Type
REMARK                         _______ _______ _______ _____ _____    ______ ____
ROOT
ATOM      1  C   UNL     1     -13.374   3.715 -16.621  0.00  0.00    +0.250 C 
ATOM      2  N   UNL     1     -13.043   4.751 -17.471  0.00  0.00    -0.281 N 
ATOM      3  H   UNL     1     -12.142   4.700 -17.928  0.00  0.00    +0.155 HD
ATOM      4  O   UNL     1     -14.428   3.635 -15.996  0.00  0.00    -0.270 OA
ENDROOT
BRANCH   1  10
ATOM      5 CL   UNL     1      -9.712  -1.065 -16.068  0.00  0.00    -0.083 Cl
ATOM      6  C   UNL     1     -10.724   0.318 -16.212  0.00  0.00    +0.042 A 
ATOM      7  C   UNL     1     -10.227   1.577 -15.888  0.00  0.00    +0.040 A 
ATOM      8  C   UNL     1     -11.042   2.716 -16.001  0.00  0.00    +0.054 A 
ATOM      9 CL   UNL     1     -10.278   4.206 -15.560  0.00  0.00    -0.083 Cl
ATOM     10  C   UNL     1     -12.373   2.601 -16.444  0.00  0.00    +0.055 A 
ATOM     11  C   UNL     1     -12.845   1.308 -16.765  0.00  0.00    +0.016 A 
ATOM     12  C   UNL     1     -12.031   0.177 -16.652  0.00  0.00    +0.021 A 
ENDBRANCH   1  10
BRANCH   2  13
ATOM     13  C   UNL     1     -13.810   5.892 -17.792  0.00  0.00    +0.035 A 
ATOM     14  C   UNL     1     -14.011   6.829 -16.767  0.00  0.00    +0.023 A 
ATOM     15  C   UNL     1     -14.756   7.988 -16.991  0.00  0.00    +0.003 A 
ATOM     16  C   UNL     1     -15.311   8.226 -18.246  0.00  0.00    +0.017 A 
ATOM     17  C   UNL     1     -15.118   7.301 -19.275  0.00  0.00    +0.026 A 
ATOM     18  C   UNL     1     -14.371   6.139 -19.048  0.00  0.00    +0.040 A 
BRANCH  17  19
ATOM     19  C   UNL     1     -15.689   7.545 -20.565  0.00  0.00    -0.070 C 
ATOM     20  C   UNL     1     -16.168   7.748 -21.647  0.00  0.00    +0.009 C 
ENDBRANCH  17  19
ENDBRANCH   2  13
TORSDOF 3
ENDMDL
