MODEL 1
REMARK VINA RESULT:      -6.1      0.000      0.000
REMARK  Name = min_compound913.pdb
REMARK  6 active torsions:
REMARK  status: ('A' for Active; 'I' for Inactive)
REMARK    1  A    between atoms: _1  and  _2
REMARK    2  A    between atoms: _1  and  _15
REMARK    3  A    between atoms: _7  and  _8
REMARK    4  A    between atoms: _13  and  _16
REMARK    5  A    between atoms: _13  and  _17
REMARK    6  A    between atoms: _17  and  _18
REMARK                            x       y       z     vdW  Elec       q    Type
REMARK                         _______ _______ _______ _____ _____    ______ ____
ROOT
ATOM      1  N   UNL     1     -13.961   3.206 -17.788  0.00  0.00    -0.226 NA
ATOM      2  C   UNL     1     -13.782   4.156 -18.635  0.00  0.00    +0.155 C 
ATOM      3  S   UNL     1     -15.212   4.961 -19.286  0.00  0.00    -0.088 S 
ATOM      4  C   UNL     1     -14.212   6.132 -20.262  0.00  0.00    +0.104 C 
ATOM      5  C   UNL     1     -12.812   6.101 -19.625  0.00  0.00    +0.063 C 
ATOM      6  C   UNL     1     -11.732   6.383 -20.672  0.00  0.00    +0.035 C 
ATOM      7  N   UNL     1     -12.642   4.737 -19.120  0.00  0.00    -0.315 N 
ATOM      8  H   UNL     1     -11.805   4.591 -18.563  0.00  0.00    +0.149 HD
ENDROOT
BRANCH   1  12
ATOM      9  C   UNL     1     -10.701   1.213 -16.016  0.00  0.00    +0.120 A 
ATOM     10  C   UNL     1     -11.263   0.746 -17.207  0.00  0.00    +0.048 A 
ATOM     11  C   UNL     1     -12.335   1.421 -17.798  0.00  0.00    +0.031 A 
ATOM     12  C   UNL     1     -12.851   2.576 -17.215  0.00  0.00    +0.067 A 
ATOM     13  C   UNL     1     -12.291   3.038 -16.019  0.00  0.00    +0.031 A 
ATOM     14  C   UNL     1     -11.214   2.368 -15.427  0.00  0.00    +0.048 A 
BRANCH   9  15
ATOM     15  O   UNL     1      -9.668   0.456 -15.534  0.00  0.00    -0.495 OA
ATOM     16  C   UNL     1      -9.592  -0.887 -15.993  0.00  0.00    +0.277 C 
ENDBRANCH   9  15
ENDBRANCH   1  12
BRANCH   5  17
ATOM     17  C   UNL     1     -12.704   7.101 -18.444  0.00  0.00    +0.182 C 
BRANCH  17  18
ATOM     18  O   UNL     1     -11.405   7.697 -18.412  0.00  0.00    -0.393 OA
ATOM     19  H   UNL     1     -11.161   7.896 -19.333  0.00  0.00    +0.209 HD
ENDBRANCH  17  18
ENDBRANCH   5  17
TORSDOF 4
ENDMDL
MODEL 2
REMARK VINA RESULT:      -6.1      3.882      5.960
REMARK  Name = min_compound913.pdb
REMARK  6 active torsions:
REMARK  status: ('A' for Active; 'I' for Inactive)
REMARK    1  A    between atoms: _1  and  _2
REMARK    2  A    between atoms: _1  and  _15
REMARK    3  A    between atoms: _7  and  _8
REMARK    4  A    between atoms: _13  and  _16
REMARK    5  A    between atoms: _13  and  _17
REMARK    6  A    between atoms: _17  and  _18
REMARK                            x       y       z     vdW  Elec       q    Type
REMARK                         _______ _______ _______ _____ _____    ______ ____
ROOT
ATOM      1  N   UNL     1     -14.555   3.386 -16.664  0.00  0.00    -0.226 NA
ATOM      2  C   UNL     1     -13.688   2.490 -16.978  0.00  0.00    +0.155 C 
ATOM      3  S   UNL     1     -12.938   2.591 -18.573  0.00  0.00    -0.088 S 
ATOM      4  C   UNL     1     -11.868   1.150 -18.254  0.00  0.00    +0.104 C 
ATOM      5  C   UNL     1     -11.849   0.988 -16.725  0.00  0.00    +0.063 C 
ATOM      6  C   UNL     1     -11.671  -0.482 -16.335  0.00  0.00    +0.035 C 
ATOM      7  N   UNL     1     -13.162   1.447 -16.266  0.00  0.00    -0.315 N 
ATOM      8  H   UNL     1     -13.260   1.512 -15.256  0.00  0.00    +0.149 HD
ENDROOT
BRANCH   1  12
ATOM      9  C   UNL     1     -16.407   3.399 -12.881  0.00  0.00    +0.120 A 
ATOM     10  C   UNL     1     -16.871   2.567 -13.903  0.00  0.00    +0.048 A 
ATOM     11  C   UNL     1     -16.243   2.555 -15.151  0.00  0.00    +0.031 A 
ATOM     12  C   UNL     1     -15.135   3.366 -15.392  0.00  0.00    +0.067 A 
ATOM     13  C   UNL     1     -14.676   4.203 -14.371  0.00  0.00    +0.031 A 
ATOM     14  C   UNL     1     -15.299   4.213 -13.117  0.00  0.00    +0.048 A 
BRANCH   9  15
ATOM     15  O   UNL     1     -17.117   3.326 -11.714  0.00  0.00    -0.495 OA
ATOM     16  C   UNL     1     -16.444   3.735 -10.530  0.00  0.00    +0.277 C 
ENDBRANCH   9  15
ENDBRANCH   1  12
BRANCH   5  17
ATOM     17  C   UNL     1     -10.744   1.863 -16.076  0.00  0.00    +0.182 C 
BRANCH  17  18
ATOM     18  O   UNL     1      -9.977   1.091 -15.148  0.00  0.00    -0.393 OA
ATOM     19  H   UNL     1      -9.225   0.720 -15.642  0.00  0.00    +0.209 HD
ENDBRANCH  17  18
ENDBRANCH   5  17
TORSDOF 4
ENDMDL
MODEL 3
REMARK VINA RESULT:      -5.9      3.477      4.737
REMARK  Name = min_compound913.pdb
REMARK  6 active torsions:
REMARK  status: ('A' for Active; 'I' for Inactive)
REMARK    1  A    between atoms: _1  and  _2
REMARK    2  A    between atoms: _1  and  _15
REMARK    3  A    between atoms: _7  and  _8
REMARK    4  A    between atoms: _13  and  _16
REMARK    5  A    between atoms: _13  and  _17
REMARK    6  A    between atoms: _17  and  _18
REMARK                            x       y       z     vdW  Elec       q    Type
REMARK                         _______ _______ _______ _____ _____    ______ ____
ROOT
ATOM      1  N   UNL     1     -13.760   4.074 -16.635  0.00  0.00    -0.226 NA
ATOM      2  C   UNL     1     -14.490   4.459 -15.649  0.00  0.00    +0.155 C 
ATOM      3  S   UNL     1     -15.856   5.521 -15.999  0.00  0.00    -0.088 S 
ATOM      4  C   UNL     1     -16.390   5.548 -14.256  0.00  0.00    +0.104 C 
ATOM      5  C   UNL     1     -15.719   4.326 -13.606  0.00  0.00    +0.063 C 
ATOM      6  C   UNL     1     -15.430   4.588 -12.126  0.00  0.00    +0.035 C 
ATOM      7  N   UNL     1     -14.450   4.152 -14.316  0.00  0.00    -0.315 N 
ATOM      8  H   UNL     1     -13.943   3.305 -14.077  0.00  0.00    +0.149 HD
ENDROOT
BRANCH   1  12
ATOM      9  C   UNL     1     -10.620   1.387 -15.819  0.00  0.00    +0.120 A 
ATOM     10  C   UNL     1     -11.846   0.929 -16.310  0.00  0.00    +0.048 A 
ATOM     11  C   UNL     1     -12.878   1.826 -16.593  0.00  0.00    +0.031 A 
ATOM     12  C   UNL     1     -12.697   3.195 -16.402  0.00  0.00    +0.067 A 
ATOM     13  C   UNL     1     -11.473   3.651 -15.904  0.00  0.00    +0.031 A 
ATOM     14  C   UNL     1     -10.434   2.755 -15.624  0.00  0.00    +0.048 A 
BRANCH   9  15
ATOM     15  O   UNL     1      -9.699   0.407 -15.569  0.00  0.00    -0.495 OA
ATOM     16  C   UNL     1      -9.714  -0.720 -16.436  0.00  0.00    +0.277 C 
ENDBRANCH   9  15
ENDBRANCH   1  12
BRANCH   5  17
ATOM     17  C   UNL     1     -16.582   3.049 -13.777  0.00  0.00    +0.182 C 
BRANCH  17  18
ATOM     18  O   UNL     1     -17.203   2.697 -12.538  0.00  0.00    -0.393 OA
ATOM     19  H   UNL     1     -16.730   3.178 -11.837  0.00  0.00    +0.209 HD
ENDBRANCH  17  18
ENDBRANCH   5  17
TORSDOF 4
ENDMDL
MODEL 4
REMARK VINA RESULT:      -5.6      8.505     10.942
REMARK  Name = min_compound913.pdb
REMARK  6 active torsions:
REMARK  status: ('A' for Active; 'I' for Inactive)
REMARK    1  A    between atoms: _1  and  _2
REMARK    2  A    between atoms: _1  and  _15
REMARK    3  A    between atoms: _7  and  _8
REMARK    4  A    between atoms: _13  and  _16
REMARK    5  A    between atoms: _13  and  _17
REMARK    6  A    between atoms: _17  and  _18
REMARK                            x       y       z     vdW  Elec       q    Type
REMARK                         _______ _______ _______ _____ _____    ______ ____
ROOT
ATOM      1  N   UNL     1     -17.327   3.625  -9.004  0.00  0.00    -0.226 NA
ATOM      2  C   UNL     1     -16.784   2.846  -8.137  0.00  0.00    +0.155 C 
ATOM      3  S   UNL     1     -17.584   2.667  -6.573  0.00  0.00    -0.088 S 
ATOM      4  C   UNL     1     -16.358   1.451  -5.990  0.00  0.00    +0.104 C 
ATOM      5  C   UNL     1     -15.673   0.922  -7.261  0.00  0.00    +0.063 C 
ATOM      6  C   UNL     1     -14.224   0.522  -6.972  0.00  0.00    +0.035 C 
ATOM      7  N   UNL     1     -15.678   2.043  -8.204  0.00  0.00    -0.315 N 
ATOM      8  H   UNL     1     -15.362   1.811  -9.142  0.00  0.00    +0.149 HD
ENDROOT
BRANCH   1  12
ATOM      9  C   UNL     1     -15.642   4.138 -12.830  0.00  0.00    +0.120 A 
ATOM     10  C   UNL     1     -15.124   4.816 -11.723  0.00  0.00    +0.048 A 
ATOM     11  C   UNL     1     -15.678   4.630 -10.454  0.00  0.00    +0.031 A 
ATOM     12  C   UNL     1     -16.747   3.755 -10.270  0.00  0.00    +0.067 A 
ATOM     13  C   UNL     1     -17.268   3.083 -11.380  0.00  0.00    +0.031 A 
ATOM     14  C   UNL     1     -16.712   3.262 -12.653  0.00  0.00    +0.048 A 
BRANCH   9  15
ATOM     15  O   UNL     1     -15.020   4.418 -14.016  0.00  0.00    -0.495 OA
ATOM     16  C   UNL     1     -15.554   5.492 -14.779  0.00  0.00    +0.277 C 
ENDBRANCH   9  15
ENDBRANCH   1  12
BRANCH   5  17
ATOM     17  C   UNL     1     -16.457  -0.268  -7.874  0.00  0.00    +0.182 C 
BRANCH  17  18
ATOM     18  O   UNL     1     -16.350  -1.420  -7.035  0.00  0.00    -0.393 OA
ATOM     19  H   UNL     1     -15.759  -2.047  -7.488  0.00  0.00    +0.209 HD
ENDBRANCH  17  18
ENDBRANCH   5  17
TORSDOF 4
ENDMDL
MODEL 5
REMARK VINA RESULT:      -5.4     10.864     13.296
REMARK  Name = min_compound913.pdb
REMARK  6 active torsions:
REMARK  status: ('A' for Active; 'I' for Inactive)
REMARK    1  A    between atoms: _1  and  _2
REMARK    2  A    between atoms: _1  and  _15
REMARK    3  A    between atoms: _7  and  _8
REMARK    4  A    between atoms: _13  and  _16
REMARK    5  A    between atoms: _13  and  _17
REMARK    6  A    between atoms: _17  and  _18
REMARK                            x       y       z     vdW  Elec       q    Type
REMARK                         _______ _______ _______ _____ _____    ______ ____
ROOT
ATOM      1  N   UNL     1     -17.630   1.527  -6.506  0.00  0.00    -0.226 NA
ATOM      2  C   UNL     1     -16.841   1.136  -5.569  0.00  0.00    +0.155 C 
ATOM      3  S   UNL     1     -17.426  -0.111  -4.465  0.00  0.00    -0.088 S 
ATOM      4  C   UNL     1     -15.844  -0.170  -3.560  0.00  0.00    +0.104 C 
ATOM      5  C   UNL     1     -14.811   0.467  -4.504  0.00  0.00    +0.063 C 
ATOM      6  C   UNL     1     -13.702   1.161  -3.709  0.00  0.00    +0.035 C 
ATOM      7  N   UNL     1     -15.549   1.474  -5.271  0.00  0.00    -0.315 N 
ATOM      8  H   UNL     1     -15.022   1.902  -6.027  0.00  0.00    +0.149 HD
ENDROOT
BRANCH   1  12
ATOM      9  C   UNL     1     -16.413   4.398  -9.337  0.00  0.00    +0.120 A 
ATOM     10  C   UNL     1     -17.173   4.768  -8.224  0.00  0.00    +0.048 A 
ATOM     11  C   UNL     1     -17.561   3.813  -7.280  0.00  0.00    +0.031 A 
ATOM     12  C   UNL     1     -17.184   2.479  -7.428  0.00  0.00    +0.067 A 
ATOM     13  C   UNL     1     -16.429   2.111  -8.546  0.00  0.00    +0.031 A 
ATOM     14  C   UNL     1     -16.034   3.065  -9.491  0.00  0.00    +0.048 A 
BRANCH   9  15
ATOM     15  O   UNL     1     -16.111   5.423 -10.191  0.00  0.00    -0.495 OA
ATOM     16  C   UNL     1     -15.443   5.075 -11.397  0.00  0.00    +0.277 C 
ENDBRANCH   9  15
ENDBRANCH   1  12
BRANCH   5  17
ATOM     17  C   UNL     1     -14.211  -0.581  -5.478  0.00  0.00    +0.182 C 
BRANCH  17  18
ATOM     18  O   UNL     1     -14.438  -1.905  -4.988  0.00  0.00    -0.393 OA
ATOM     19  H   UNL     1     -15.392  -2.078  -5.067  0.00  0.00    +0.209 HD
ENDBRANCH  17  18
ENDBRANCH   5  17
TORSDOF 4
ENDMDL
MODEL 6
REMARK VINA RESULT:      -5.2     13.366     15.098
REMARK  Name = min_compound913.pdb
REMARK  6 active torsions:
REMARK  status: ('A' for Active; 'I' for Inactive)
REMARK    1  A    between atoms: _1  and  _2
REMARK    2  A    between atoms: _1  and  _15
REMARK    3  A    between atoms: _7  and  _8
REMARK    4  A    between atoms: _13  and  _16
REMARK    5  A    between atoms: _13  and  _17
REMARK    6  A    between atoms: _17  and  _18
REMARK                            x       y       z     vdW  Elec       q    Type
REMARK                         _______ _______ _______ _____ _____    ______ ____
ROOT
ATOM      1  N   UNL     1     -16.325   0.064  -3.202  0.00  0.00    -0.226 NA
ATOM      2  C   UNL     1     -16.443   0.296  -4.461  0.00  0.00    +0.155 C 
ATOM      3  S   UNL     1     -16.802   1.949  -4.966  0.00  0.00    -0.088 S 
ATOM      4  C   UNL     1     -16.738   1.512  -6.735  0.00  0.00    +0.104 C 
ATOM      5  C   UNL     1     -15.965   0.184  -6.798  0.00  0.00    +0.063 C 
ATOM      6  C   UNL     1     -16.437  -0.665  -7.981  0.00  0.00    +0.035 C 
ATOM      7  N   UNL     1     -16.285  -0.516  -5.552  0.00  0.00    -0.315 N 
ATOM      8  H   UNL     1     -15.750  -1.365  -5.392  0.00  0.00    +0.149 HD
ENDROOT
BRANCH   1  12
ATOM      9  C   UNL     1     -15.279  -3.840  -2.016  0.00  0.00    +0.120 A 
ATOM     10  C   UNL     1     -14.308  -2.841  -2.127  0.00  0.00    +0.048 A 
ATOM     11  C   UNL     1     -14.663  -1.544  -2.506  0.00  0.00    +0.031 A 
ATOM     12  C   UNL     1     -15.994  -1.223  -2.767  0.00  0.00    +0.067 A 
ATOM     13  C   UNL     1     -16.963  -2.226  -2.662  0.00  0.00    +0.031 A 
ATOM     14  C   UNL     1     -16.612  -3.526  -2.277  0.00  0.00    +0.048 A 
BRANCH   9  15
ATOM     15  O   UNL     1     -14.800  -5.068  -1.651  0.00  0.00    -0.495 OA
ATOM     16  C   UNL     1     -13.388  -5.237  -1.677  0.00  0.00    +0.277 C 
ENDBRANCH   9  15
ENDBRANCH   1  12
BRANCH   5  17
ATOM     17  C   UNL     1     -14.434   0.422  -6.874  0.00  0.00    +0.182 C 
BRANCH  17  18
ATOM     18  O   UNL     1     -13.728  -0.680  -6.298  0.00  0.00    -0.393 OA
ATOM     19  H   UNL     1     -12.784  -0.547  -6.497  0.00  0.00    +0.209 HD
ENDBRANCH  17  18
ENDBRANCH   5  17
TORSDOF 4
ENDMDL
MODEL 7
REMARK VINA RESULT:      -5.2      2.077      2.370
REMARK  Name = min_compound913.pdb
REMARK  6 active torsions:
REMARK  status: ('A' for Active; 'I' for Inactive)
REMARK    1  A    between atoms: _1  and  _2
REMARK    2  A    between atoms: _1  and  _15
REMARK    3  A    between atoms: _7  and  _8
REMARK    4  A    between atoms: _13  and  _16
REMARK    5  A    between atoms: _13  and  _17
REMARK    6  A    between atoms: _17  and  _18
REMARK                            x       y       z     vdW  Elec       q    Type
REMARK                         _______ _______ _______ _____ _____    ______ ____
ROOT
ATOM      1  N   UNL     1     -13.784   3.814 -15.335  0.00  0.00    -0.226 NA
ATOM      2  C   UNL     1     -14.477   4.619 -16.058  0.00  0.00    +0.155 C 
ATOM      3  S   UNL     1     -15.815   5.477 -15.288  0.00  0.00    -0.088 S 
ATOM      4  C   UNL     1     -16.213   6.397 -16.811  0.00  0.00    +0.104 C 
ATOM      5  C   UNL     1     -14.950   6.303 -17.684  0.00  0.00    +0.063 C 
ATOM      6  C   UNL     1     -15.314   6.330 -19.171  0.00  0.00    +0.035 C 
ATOM      7  N   UNL     1     -14.347   5.008 -17.364  0.00  0.00    -0.315 N 
ATOM      8  H   UNL     1     -13.433   4.850 -17.779  0.00  0.00    +0.149 HD
ENDROOT
BRANCH   1  12
ATOM      9  C   UNL     1     -10.478   1.743 -16.923  0.00  0.00    +0.120 A 
ATOM     10  C   UNL     1     -11.756   1.179 -16.950  0.00  0.00    +0.048 A 
ATOM     11  C   UNL     1     -12.852   1.877 -16.436  0.00  0.00    +0.031 A 
ATOM     12  C   UNL     1     -12.688   3.153 -15.899  0.00  0.00    +0.067 A 
ATOM     13  C   UNL     1     -11.407   3.713 -15.866  0.00  0.00    +0.031 A 
ATOM     14  C   UNL     1     -10.307   3.019 -16.386  0.00  0.00    +0.048 A 
BRANCH   9  15
ATOM     15  O   UNL     1      -9.491   0.953 -17.444  0.00  0.00    -0.495 OA
ATOM     16  C   UNL     1      -9.417  -0.381 -16.959  0.00  0.00    +0.277 C 
ENDBRANCH   9  15
ENDBRANCH   1  12
BRANCH   5  17
ATOM     17  C   UNL     1     -13.943   7.435 -17.348  0.00  0.00    +0.182 C 
BRANCH  17  18
ATOM     18  O   UNL     1     -12.668   7.158 -17.933  0.00  0.00    -0.393 OA
ATOM     19  H   UNL     1     -12.600   6.191 -18.021  0.00  0.00    +0.209 HD
ENDBRANCH  17  18
ENDBRANCH   5  17
TORSDOF 4
ENDMDL
MODEL 8
REMARK VINA RESULT:      -5.1     14.282     16.115
REMARK  Name = min_compound913.pdb
REMARK  6 active torsions:
REMARK  status: ('A' for Active; 'I' for Inactive)
REMARK    1  A    between atoms: _1  and  _2
REMARK    2  A    between atoms: _1  and  _15
REMARK    3  A    between atoms: _7  and  _8
REMARK    4  A    between atoms: _13  and  _16
REMARK    5  A    between atoms: _13  and  _17
REMARK    6  A    between atoms: _17  and  _18
REMARK                            x       y       z     vdW  Elec       q    Type
REMARK                         _______ _______ _______ _____ _____    ______ ____
ROOT
ATOM      1  N   UNL     1     -14.258  -1.141  -2.236  0.00  0.00    -0.226 NA
ATOM      2  C   UNL     1     -14.593  -0.379  -3.215  0.00  0.00    +0.155 C 
ATOM      3  S   UNL     1     -13.664   1.101  -3.465  0.00  0.00    -0.088 S 
ATOM      4  C   UNL     1     -14.616   1.548  -4.954  0.00  0.00    +0.104 C 
ATOM      5  C   UNL     1     -15.288   0.243  -5.413  0.00  0.00    +0.063 C 
ATOM      6  C   UNL     1     -16.621   0.534  -6.108  0.00  0.00    +0.035 C 
ATOM      7  N   UNL     1     -15.545  -0.518  -4.189  0.00  0.00    -0.315 N 
ATOM      8  H   UNL     1     -15.883  -1.464  -4.340  0.00  0.00    +0.149 HD
ENDROOT
BRANCH   1  12
ATOM      9  C   UNL     1     -16.339  -4.773  -1.767  0.00  0.00    +0.120 A 
ATOM     10  C   UNL     1     -15.033  -4.756  -2.265  0.00  0.00    +0.048 A 
ATOM     11  C   UNL     1     -14.342  -3.549  -2.404  0.00  0.00    +0.031 A 
ATOM     12  C   UNL     1     -14.941  -2.345  -2.036  0.00  0.00    +0.067 A 
ATOM     13  C   UNL     1     -16.250  -2.364  -1.545  0.00  0.00    +0.031 A 
ATOM     14  C   UNL     1     -16.944  -3.572  -1.399  0.00  0.00    +0.048 A 
BRANCH   9  15
ATOM     15  O   UNL     1     -16.908  -6.015  -1.694  0.00  0.00    -0.495 OA
ATOM     16  C   UNL     1     -16.137  -7.102  -2.189  0.00  0.00    +0.277 C 
ENDBRANCH   9  15
ENDBRANCH   1  12
BRANCH   5  17
ATOM     17  C   UNL     1     -14.356  -0.578  -6.342  0.00  0.00    +0.182 C 
BRANCH  17  18
ATOM     18  O   UNL     1     -14.669  -1.971  -6.257  0.00  0.00    -0.393 OA
ATOM     19  H   UNL     1     -15.047  -2.124  -5.373  0.00  0.00    +0.209 HD
ENDBRANCH  17  18
ENDBRANCH   5  17
TORSDOF 4
ENDMDL
MODEL 9
REMARK VINA RESULT:      -5.1      2.162      6.427
REMARK  Name = min_compound913.pdb
REMARK  6 active torsions:
REMARK  status: ('A' for Active; 'I' for Inactive)
REMARK    1  A    between atoms: _1  and  _2
REMARK    2  A    between atoms: _1  and  _15
REMARK    3  A    between atoms: _7  and  _8
REMARK    4  A    between atoms: _13  and  _16
REMARK    5  A    between atoms: _13  and  _17
REMARK    6  A    between atoms: _17  and  _18
REMARK                            x       y       z     vdW  Elec       q    Type
REMARK                         _______ _______ _______ _____ _____    ______ ____
ROOT
ATOM      1  N   UNL     1     -13.060   5.303 -17.850  0.00  0.00    -0.226 NA
ATOM      2  C   UNL     1     -12.468   4.305 -17.299  0.00  0.00    +0.155 C 
ATOM      3  S   UNL     1     -13.101   3.717 -15.759  0.00  0.00    -0.088 S 
ATOM      4  C   UNL     1     -11.883   2.363 -15.679  0.00  0.00    +0.104 C 
ATOM      5  C   UNL     1     -11.370   2.192 -17.119  0.00  0.00    +0.063 C 
ATOM      6  C   UNL     1      -9.921   1.698 -17.124  0.00  0.00    +0.035 C 
ATOM      7  N   UNL     1     -11.419   3.529 -17.714  0.00  0.00    -0.315 N 
ATOM      8  H   UNL     1     -11.220   3.558 -18.710  0.00  0.00    +0.149 HD
ENDROOT
BRANCH   1  12
ATOM      9  C   UNL     1     -11.807   6.805 -21.581  0.00  0.00    +0.120 A 
ATOM     10  C   UNL     1     -11.341   7.368 -20.390  0.00  0.00    +0.048 A 
ATOM     11  C   UNL     1     -11.749   6.856 -19.155  0.00  0.00    +0.031 A 
ATOM     12  C   UNL     1     -12.616   5.766 -19.093  0.00  0.00    +0.067 A 
ATOM     13  C   UNL     1     -13.086   5.209 -20.286  0.00  0.00    +0.031 A 
ATOM     14  C   UNL     1     -12.676   5.715 -21.525  0.00  0.00    +0.048 A 
BRANCH   9  15
ATOM     15  O   UNL     1     -11.344   7.406 -22.719  0.00  0.00    -0.495 OA
ATOM     16  C   UNL     1     -10.500   8.537 -22.546  0.00  0.00    +0.277 C 
ENDBRANCH   9  15
ENDBRANCH   1  12
BRANCH   5  17
ATOM     17  C   UNL     1     -12.277   1.233 -17.934  0.00  0.00    +0.182 C 
BRANCH  17  18
ATOM     18  O   UNL     1     -11.711  -0.079 -17.970  0.00  0.00    -0.393 OA
ATOM     19  H   UNL     1     -11.840  -0.468 -17.087  0.00  0.00    +0.209 HD
ENDBRANCH  17  18
ENDBRANCH   5  17
TORSDOF 4
ENDMDL
