MODEL 1
REMARK VINA RESULT:      -5.2      0.000      0.000
REMARK  Name = min_compound95.pdb
REMARK  4 active torsions:
REMARK  status: ('A' for Active; 'I' for Inactive)
REMARK    1  A    between atoms: _4  and  _8
REMARK    2  A    between atoms: _9  and  _10
REMARK    3  A    between atoms: _10  and  _11
REMARK    4  A    between atoms: _11  and  _12
REMARK                            x       y       z     vdW  Elec       q    Type
REMARK                         _______ _______ _______ _____ _____    ______ ____
ROOT
ATOM      1 CL   UNL     1     -14.071   1.105  -7.086  0.00  0.00    -0.060 Cl
ATOM      2  C   UNL     1     -14.148   0.463  -5.488  0.00  0.00    +0.155 A 
ATOM      3  C   UNL     1     -14.473  -0.869  -5.265  0.00  0.00    +0.102 A 
ATOM      4  C   UNL     1     -14.567  -1.206  -3.910  0.00  0.00    +0.144 A 
ATOM      5  N   UNL     1     -14.994  -2.525  -3.600  0.00  0.00    -0.325 N 
ATOM      6  H   UNL     1     -15.871  -2.668  -4.101  0.00  0.00    +0.148 HD
ATOM      7  N   UNL     1     -14.242  -0.348  -2.925  0.00  0.00    -0.219 NA
ATOM      8  C   UNL     1     -13.885   0.890  -3.292  0.00  0.00    +0.225 A 
ATOM      9  N   UNL     1     -13.831   1.360  -4.538  0.00  0.00    -0.222 NA
ENDROOT
BRANCH   3  10
ATOM     10  N   UNL     1     -14.908  -1.768  -6.271  0.00  0.00    -0.353 N 
ATOM     11  H   UNL     1     -14.436  -2.668  -6.205  0.00  0.00    +0.143 HD
ATOM     12  H   UNL     1     -15.924  -1.865  -6.232  0.00  0.00    +0.143 HD
ENDBRANCH   3  10
BRANCH   5  13
ATOM     13  C   UNL     1     -15.109  -2.797  -2.169  0.00  0.00    +0.130 C 
BRANCH  13  14
ATOM     14  C   UNL     1     -13.870  -3.549  -1.666  0.00  0.00    +0.174 C 
BRANCH  14  15
ATOM     15  O   UNL     1     -12.929  -2.663  -1.068  0.00  0.00    -0.393 OA
ATOM     16  H   UNL     1     -12.410  -2.253  -1.780  0.00  0.00    +0.209 HD
ENDBRANCH  14  15
ENDBRANCH  13  14
ENDBRANCH   5  13
TORSDOF 4
ENDMDL
MODEL 2
REMARK VINA RESULT:      -4.7      1.435      1.545
REMARK  Name = min_compound95.pdb
REMARK  4 active torsions:
REMARK  status: ('A' for Active; 'I' for Inactive)
REMARK    1  A    between atoms: _4  and  _8
REMARK    2  A    between atoms: _9  and  _10
REMARK    3  A    between atoms: _10  and  _11
REMARK    4  A    between atoms: _11  and  _12
REMARK                            x       y       z     vdW  Elec       q    Type
REMARK                         _______ _______ _______ _____ _____    ______ ____
ROOT
ATOM      1 CL   UNL     1     -14.184   1.208  -7.169  0.00  0.00    -0.060 Cl
ATOM      2  C   UNL     1     -14.208   0.570  -5.567  0.00  0.00    +0.155 A 
ATOM      3  C   UNL     1     -14.458  -0.776  -5.336  0.00  0.00    +0.102 A 
ATOM      4  C   UNL     1     -14.519  -1.112  -3.979  0.00  0.00    +0.144 A 
ATOM      5  N   UNL     1     -14.872  -2.451  -3.659  0.00  0.00    -0.325 N 
ATOM      6  H   UNL     1     -15.746  -2.642  -4.149  0.00  0.00    +0.148 HD
ATOM      7  N   UNL     1     -14.228  -0.234  -3.001  0.00  0.00    -0.219 NA
ATOM      8  C   UNL     1     -13.943   1.020  -3.376  0.00  0.00    +0.225 A 
ATOM      9  N   UNL     1     -13.928   1.487  -4.625  0.00  0.00    -0.222 NA
ENDROOT
BRANCH   3  10
ATOM     10  N   UNL     1     -14.857  -1.702  -6.333  0.00  0.00    -0.353 N 
ATOM     11  H   UNL     1     -15.338  -2.506  -5.934  0.00  0.00    +0.143 HD
ATOM     12  H   UNL     1     -15.425  -1.228  -7.038  0.00  0.00    +0.143 HD
ENDBRANCH   3  10
BRANCH   5  13
ATOM     13  C   UNL     1     -14.955  -2.723  -2.225  0.00  0.00    +0.130 C 
BRANCH  13  14
ATOM     14  C   UNL     1     -16.319  -3.329  -1.875  0.00  0.00    +0.174 C 
BRANCH  14  15
ATOM     15  O   UNL     1     -17.178  -3.373  -3.009  0.00  0.00    -0.393 OA
ATOM     16  H   UNL     1     -17.302  -4.305  -3.255  0.00  0.00    +0.209 HD
ENDBRANCH  14  15
ENDBRANCH  13  14
ENDBRANCH   5  13
TORSDOF 4
ENDMDL
MODEL 3
REMARK VINA RESULT:      -4.6     13.846     15.142
REMARK  Name = min_compound95.pdb
REMARK  4 active torsions:
REMARK  status: ('A' for Active; 'I' for Inactive)
REMARK    1  A    between atoms: _4  and  _8
REMARK    2  A    between atoms: _9  and  _10
REMARK    3  A    between atoms: _10  and  _11
REMARK    4  A    between atoms: _11  and  _12
REMARK                            x       y       z     vdW  Elec       q    Type
REMARK                         _______ _______ _______ _____ _____    ______ ____
ROOT
ATOM      1 CL   UNL     1     -10.021   0.605 -15.479  0.00  0.00    -0.060 Cl
ATOM      2  C   UNL     1     -10.950   1.581 -16.554  0.00  0.00    +0.155 A 
ATOM      3  C   UNL     1     -10.935   2.966 -16.459  0.00  0.00    +0.102 A 
ATOM      4  C   UNL     1     -11.803   3.602 -17.354  0.00  0.00    +0.144 A 
ATOM      5  N   UNL     1     -11.920   5.014 -17.249  0.00  0.00    -0.325 N 
ATOM      6  H   UNL     1     -12.148   5.211 -16.275  0.00  0.00    +0.148 HD
ATOM      7  N   UNL     1     -12.484   2.933 -18.303  0.00  0.00    -0.219 NA
ATOM      8  C   UNL     1     -12.354   1.599 -18.316  0.00  0.00    +0.225 A 
ATOM      9  N   UNL     1     -11.624   0.867 -17.473  0.00  0.00    -0.222 NA
ENDROOT
BRANCH   3  10
ATOM     10  N   UNL     1     -10.304   3.693 -15.417  0.00  0.00    -0.353 N 
ATOM     11  H   UNL     1     -10.348   4.698 -15.575  0.00  0.00    +0.143 HD
ATOM     12  H   UNL     1     -10.709   3.429 -14.517  0.00  0.00    +0.143 HD
ENDBRANCH   3  10
BRANCH   5  13
ATOM     13  C   UNL     1     -12.872   5.608 -18.186  0.00  0.00    +0.130 C 
BRANCH  13  14
ATOM     14  C   UNL     1     -12.791   7.138 -18.132  0.00  0.00    +0.174 C 
BRANCH  14  15
ATOM     15  O   UNL     1     -11.478   7.602 -18.429  0.00  0.00    -0.393 OA
ATOM     16  H   UNL     1     -11.536   8.551 -18.635  0.00  0.00    +0.209 HD
ENDBRANCH  14  15
ENDBRANCH  13  14
ENDBRANCH   5  13
TORSDOF 4
ENDMDL
MODEL 4
REMARK VINA RESULT:      -4.5     13.533     15.061
REMARK  Name = min_compound95.pdb
REMARK  4 active torsions:
REMARK  status: ('A' for Active; 'I' for Inactive)
REMARK    1  A    between atoms: _4  and  _8
REMARK    2  A    between atoms: _9  and  _10
REMARK    3  A    between atoms: _10  and  _11
REMARK    4  A    between atoms: _11  and  _12
REMARK                            x       y       z     vdW  Elec       q    Type
REMARK                         _______ _______ _______ _____ _____    ______ ____
ROOT
ATOM      1 CL   UNL     1     -10.917  -0.520 -17.109  0.00  0.00    -0.060 Cl
ATOM      2  C   UNL     1     -11.204   1.163 -16.868  0.00  0.00    +0.155 A 
ATOM      3  C   UNL     1     -11.971   1.895 -17.764  0.00  0.00    +0.102 A 
ATOM      4  C   UNL     1     -12.039   3.260 -17.463  0.00  0.00    +0.144 A 
ATOM      5  N   UNL     1     -12.722   4.094 -18.388  0.00  0.00    -0.325 N 
ATOM      6  H   UNL     1     -12.302   3.914 -19.301  0.00  0.00    +0.148 HD
ATOM      7  N   UNL     1     -11.518   3.781 -16.337  0.00  0.00    -0.219 NA
ATOM      8  C   UNL     1     -10.854   2.941 -15.530  0.00  0.00    +0.225 A 
ATOM      9  N   UNL     1     -10.650   1.640 -15.740  0.00  0.00    -0.222 NA
ENDROOT
BRANCH   3  10
ATOM     10  N   UNL     1     -12.453   1.398 -19.001  0.00  0.00    -0.353 N 
ATOM     11  H   UNL     1     -13.450   1.576 -19.119  0.00  0.00    +0.143 HD
ATOM     12  H   UNL     1     -11.902   1.785 -19.768  0.00  0.00    +0.143 HD
ENDBRANCH   3  10
BRANCH   5  13
ATOM     13  C   UNL     1     -12.722   5.511 -18.033  0.00  0.00    +0.130 C 
BRANCH  13  14
ATOM     14  C   UNL     1     -11.887   6.314 -19.038  0.00  0.00    +0.174 C 
BRANCH  14  15
ATOM     15  O   UNL     1     -11.542   7.597 -18.524  0.00  0.00    -0.393 OA
ATOM     16  H   UNL     1     -10.745   7.901 -18.990  0.00  0.00    +0.209 HD
ENDBRANCH  14  15
ENDBRANCH  13  14
ENDBRANCH   5  13
TORSDOF 4
ENDMDL
MODEL 5
REMARK VINA RESULT:      -4.4     12.445     13.666
REMARK  Name = min_compound95.pdb
REMARK  4 active torsions:
REMARK  status: ('A' for Active; 'I' for Inactive)
REMARK    1  A    between atoms: _4  and  _8
REMARK    2  A    between atoms: _9  and  _10
REMARK    3  A    between atoms: _10  and  _11
REMARK    4  A    between atoms: _11  and  _12
REMARK                            x       y       z     vdW  Elec       q    Type
REMARK                         _______ _______ _______ _____ _____    ______ ____
ROOT
ATOM      1 CL   UNL     1      -9.367   0.016 -17.264  0.00  0.00    -0.060 Cl
ATOM      2  C   UNL     1     -10.778   1.006 -17.327  0.00  0.00    +0.155 A 
ATOM      3  C   UNL     1     -11.112   1.845 -16.272  0.00  0.00    +0.102 A 
ATOM      4  C   UNL     1     -12.326   2.517 -16.451  0.00  0.00    +0.144 A 
ATOM      5  N   UNL     1     -12.788   3.318 -15.372  0.00  0.00    -0.325 N 
ATOM      6  H   UNL     1     -12.792   2.714 -14.549  0.00  0.00    +0.148 HD
ATOM      7  N   UNL     1     -13.028   2.453 -17.598  0.00  0.00    -0.219 NA
ATOM      8  C   UNL     1     -12.552   1.648 -18.557  0.00  0.00    +0.225 A 
ATOM      9  N   UNL     1     -11.454   0.895 -18.483  0.00  0.00    -0.222 NA
ENDROOT
BRANCH   3  10
ATOM     10  N   UNL     1     -10.446   1.865 -15.020  0.00  0.00    -0.353 N 
ATOM     11  H   UNL     1      -9.570   2.383 -15.065  0.00  0.00    +0.143 HD
ATOM     12  H   UNL     1     -11.072   2.233 -14.302  0.00  0.00    +0.143 HD
ENDBRANCH   3  10
BRANCH   5  13
ATOM     13  C   UNL     1     -14.079   3.959 -15.610  0.00  0.00    +0.130 C 
BRANCH  13  14
ATOM     14  C   UNL     1     -15.208   3.144 -14.968  0.00  0.00    +0.174 C 
BRANCH  14  15
ATOM     15  O   UNL     1     -15.646   2.094 -15.825  0.00  0.00    -0.393 OA
ATOM     16  H   UNL     1     -15.075   2.094 -16.612  0.00  0.00    +0.209 HD
ENDBRANCH  14  15
ENDBRANCH  13  14
ENDBRANCH   5  13
TORSDOF 4
ENDMDL
MODEL 6
REMARK VINA RESULT:      -4.3     12.915     13.449
REMARK  Name = min_compound95.pdb
REMARK  4 active torsions:
REMARK  status: ('A' for Active; 'I' for Inactive)
REMARK    1  A    between atoms: _4  and  _8
REMARK    2  A    between atoms: _9  and  _10
REMARK    3  A    between atoms: _10  and  _11
REMARK    4  A    between atoms: _11  and  _12
REMARK                            x       y       z     vdW  Elec       q    Type
REMARK                         _______ _______ _______ _____ _____    ______ ____
ROOT
ATOM      1 CL   UNL     1     -13.097   5.490 -16.822  0.00  0.00    -0.060 Cl
ATOM      2  C   UNL     1     -12.758   3.815 -16.594  0.00  0.00    +0.155 A 
ATOM      3  C   UNL     1     -11.575   3.397 -16.000  0.00  0.00    +0.102 A 
ATOM      4  C   UNL     1     -11.424   2.006 -15.963  0.00  0.00    +0.144 A 
ATOM      5  N   UNL     1     -10.195   1.502 -15.461  0.00  0.00    -0.325 N 
ATOM      6  H   UNL     1      -9.457   1.962 -15.995  0.00  0.00    +0.148 HD
ATOM      7  N   UNL     1     -12.398   1.161 -16.348  0.00  0.00    -0.219 NA
ATOM      8  C   UNL     1     -13.515   1.708 -16.847  0.00  0.00    +0.225 A 
ATOM      9  N   UNL     1     -13.752   3.011 -17.009  0.00  0.00    -0.222 NA
ENDROOT
BRANCH   3  10
ATOM     10  N   UNL     1     -10.496   4.255 -15.669  0.00  0.00    -0.353 N 
ATOM     11  H   UNL     1     -10.083   4.017 -14.769  0.00  0.00    +0.143 HD
ATOM     12  H   UNL     1      -9.804   4.247 -16.421  0.00  0.00    +0.143 HD
ENDBRANCH   3  10
BRANCH   5  13
ATOM     13  C   UNL     1     -10.088   0.044 -15.488  0.00  0.00    +0.130 C 
BRANCH  13  14
ATOM     14  C   UNL     1      -9.309  -0.413 -16.727  0.00  0.00    +0.174 C 
BRANCH  14  15
ATOM     15  O   UNL     1     -10.185  -0.769 -17.792  0.00  0.00    -0.393 OA
ATOM     16  H   UNL     1     -10.613  -1.610 -17.558  0.00  0.00    +0.209 HD
ENDBRANCH  14  15
ENDBRANCH  13  14
ENDBRANCH   5  13
TORSDOF 4
ENDMDL
MODEL 7
REMARK VINA RESULT:      -4.3     12.858     13.532
REMARK  Name = min_compound95.pdb
REMARK  4 active torsions:
REMARK  status: ('A' for Active; 'I' for Inactive)
REMARK    1  A    between atoms: _4  and  _8
REMARK    2  A    between atoms: _9  and  _10
REMARK    3  A    between atoms: _10  and  _11
REMARK    4  A    between atoms: _11  and  _12
REMARK                            x       y       z     vdW  Elec       q    Type
REMARK                         _______ _______ _______ _____ _____    ______ ____
ROOT
ATOM      1 CL   UNL     1     -13.981   5.210 -16.439  0.00  0.00    -0.060 Cl
ATOM      2  C   UNL     1     -12.715   4.081 -16.749  0.00  0.00    +0.155 A 
ATOM      3  C   UNL     1     -12.973   2.719 -16.825  0.00  0.00    +0.102 A 
ATOM      4  C   UNL     1     -11.825   1.938 -17.004  0.00  0.00    +0.144 A 
ATOM      5  N   UNL     1     -11.993   0.527 -16.991  0.00  0.00    -0.325 N 
ATOM      6  H   UNL     1     -12.487   0.306 -16.127  0.00  0.00    +0.148 HD
ATOM      7  N   UNL     1     -10.609   2.474 -17.215  0.00  0.00    -0.219 NA
ATOM      8  C   UNL     1     -10.520   3.811 -17.174  0.00  0.00    +0.225 A 
ATOM      9  N   UNL     1     -11.518   4.663 -16.936  0.00  0.00    -0.222 NA
ENDROOT
BRANCH   3  10
ATOM     10  N   UNL     1     -14.220   2.119 -16.518  0.00  0.00    -0.353 N 
ATOM     11  H   UNL     1     -14.979   2.800 -16.517  0.00  0.00    +0.143 HD
ATOM     12  H   UNL     1     -14.401   1.346 -17.161  0.00  0.00    +0.143 HD
ENDBRANCH   3  10
BRANCH   5  13
ATOM     13  C   UNL     1     -10.751  -0.227 -17.144  0.00  0.00    +0.130 C 
BRANCH  13  14
ATOM     14  C   UNL     1     -10.185  -0.608 -15.770  0.00  0.00    +0.174 C 
BRANCH  14  15
ATOM     15  O   UNL     1      -9.726   0.537 -15.059  0.00  0.00    -0.393 OA
ATOM     16  H   UNL     1     -10.489   1.121 -14.909  0.00  0.00    +0.209 HD
ENDBRANCH  14  15
ENDBRANCH  13  14
ENDBRANCH   5  13
TORSDOF 4
ENDMDL
MODEL 8
REMARK VINA RESULT:      -4.2     12.759     13.757
REMARK  Name = min_compound95.pdb
REMARK  4 active torsions:
REMARK  status: ('A' for Active; 'I' for Inactive)
REMARK    1  A    between atoms: _4  and  _8
REMARK    2  A    between atoms: _9  and  _10
REMARK    3  A    between atoms: _10  and  _11
REMARK    4  A    between atoms: _11  and  _12
REMARK                            x       y       z     vdW  Elec       q    Type
REMARK                         _______ _______ _______ _____ _____    ______ ____
ROOT
ATOM      1 CL   UNL     1     -10.015  -0.840 -17.669  0.00  0.00    -0.060 Cl
ATOM      2  C   UNL     1     -10.631   0.597 -16.942  0.00  0.00    +0.155 A 
ATOM      3  C   UNL     1     -11.649   1.325 -17.543  0.00  0.00    +0.102 A 
ATOM      4  C   UNL     1     -11.976   2.504 -16.863  0.00  0.00    +0.144 A 
ATOM      5  N   UNL     1     -12.938   3.355 -17.469  0.00  0.00    -0.325 N 
ATOM      6  H   UNL     1     -12.609   3.530 -18.418  0.00  0.00    +0.148 HD
ATOM      7  N   UNL     1     -11.443   2.824 -15.669  0.00  0.00    -0.219 NA
ATOM      8  C   UNL     1     -10.513   1.993 -15.177  0.00  0.00    +0.225 A 
ATOM      9  N   UNL     1     -10.056   0.884 -15.761  0.00  0.00    -0.222 NA
ENDROOT
BRANCH   3  10
ATOM     10  N   UNL     1     -12.164   1.066 -18.839  0.00  0.00    -0.353 N 
ATOM     11  H   UNL     1     -11.787   1.710 -19.533  0.00  0.00    +0.143 HD
ATOM     12  H   UNL     1     -11.995   0.091 -19.089  0.00  0.00    +0.143 HD
ENDBRANCH   3  10
BRANCH   5  13
ATOM     13  C   UNL     1     -13.204   4.585 -16.726  0.00  0.00    +0.130 C 
BRANCH  13  14
ATOM     14  C   UNL     1     -14.480   4.439 -15.888  0.00  0.00    +0.174 C 
BRANCH  14  15
ATOM     15  O   UNL     1     -14.229   3.742 -14.672  0.00  0.00    -0.393 OA
ATOM     16  H   UNL     1     -14.712   4.197 -13.962  0.00  0.00    +0.209 HD
ENDBRANCH  14  15
ENDBRANCH  13  14
ENDBRANCH   5  13
TORSDOF 4
ENDMDL
MODEL 9
REMARK VINA RESULT:      -4.0     13.905     14.737
REMARK  Name = min_compound95.pdb
REMARK  4 active torsions:
REMARK  status: ('A' for Active; 'I' for Inactive)
REMARK    1  A    between atoms: _4  and  _8
REMARK    2  A    between atoms: _9  and  _10
REMARK    3  A    between atoms: _10  and  _11
REMARK    4  A    between atoms: _11  and  _12
REMARK                            x       y       z     vdW  Elec       q    Type
REMARK                         _______ _______ _______ _____ _____    ______ ____
ROOT
ATOM      1 CL   UNL     1     -14.833   4.233 -20.109  0.00  0.00    -0.060 Cl
ATOM      2  C   UNL     1     -13.917   3.445 -18.879  0.00  0.00    +0.155 A 
ATOM      3  C   UNL     1     -13.171   2.307 -19.158  0.00  0.00    +0.102 A 
ATOM      4  C   UNL     1     -12.553   1.749 -18.034  0.00  0.00    +0.144 A 
ATOM      5  N   UNL     1     -11.854   0.526 -18.220  0.00  0.00    -0.325 N 
ATOM      6  H   UNL     1     -12.511  -0.115 -18.665  0.00  0.00    +0.148 HD
ATOM      7  N   UNL     1     -12.575   2.341 -16.825  0.00  0.00    -0.219 NA
ATOM      8  C   UNL     1     -13.287   3.472 -16.716  0.00  0.00    +0.225 A 
ATOM      9  N   UNL     1     -13.984   4.063 -17.687  0.00  0.00    -0.222 NA
ENDROOT
BRANCH   3  10
ATOM     10  N   UNL     1     -13.201   1.611 -20.394  0.00  0.00    -0.353 N 
ATOM     11  H   UNL     1     -13.164   0.601 -20.261  0.00  0.00    +0.143 HD
ATOM     12  H   UNL     1     -14.021   1.896 -20.932  0.00  0.00    +0.143 HD
ENDBRANCH   3  10
BRANCH   5  13
ATOM     13  C   UNL     1     -11.266  -0.021 -16.999  0.00  0.00    +0.130 C 
BRANCH  13  14
ATOM     14  C   UNL     1      -9.987  -0.801 -17.325  0.00  0.00    +0.174 C 
BRANCH  14  15
ATOM     15  O   UNL     1      -8.868   0.067 -17.471  0.00  0.00    -0.393 OA
ATOM     16  H   UNL     1      -8.532   0.274 -16.582  0.00  0.00    +0.209 HD
ENDBRANCH  14  15
ENDBRANCH  13  14
ENDBRANCH   5  13
TORSDOF 4
ENDMDL
