MODEL 1
REMARK VINA RESULT:      -6.5      0.000      0.000
REMARK  Name = min_compound916.pdb
REMARK  6 active torsions:
REMARK  status: ('A' for Active; 'I' for Inactive)
REMARK    1  A    between atoms: _6  and  _7
REMARK    2  A    between atoms: _7  and  _15
REMARK    3  A    between atoms: _8  and  _9
REMARK    4  A    between atoms: _8  and  _18
REMARK    5  A    between atoms: _15  and  _16
REMARK    6  A    between atoms: _17  and  _18
REMARK                            x       y       z     vdW  Elec       q    Type
REMARK                         _______ _______ _______ _____ _____    ______ ____
ROOT
ATOM      1  C   UNL     1     -13.945   3.315 -15.570  0.00  0.00    -0.019 C 
ATOM      2  C   UNL     1     -14.891   2.390 -15.803  0.00  0.00    -0.019 C 
ENDROOT
BRANCH   1   3
ATOM      3  C   UNL     1     -12.671   3.460 -16.345  0.00  0.00    +0.102 C 
BRANCH   3   4
ATOM      4  S   UNL     1     -12.759   2.417 -17.827  0.00  0.00    -0.102 S 
BRANCH   4   8
ATOM      5  C   UNL     1      -9.782  -0.757 -16.619  0.00  0.00    +0.020 A 
ATOM      6  C   UNL     1      -9.439   0.400 -17.295  0.00  0.00    +0.112 A 
ATOM      7  N   UNL     1     -10.328   1.345 -17.664  0.00  0.00    -0.249 NA
ATOM      8  C   UNL     1     -11.624   1.141 -17.339  0.00  0.00    +0.097 A 
ATOM      9  C   UNL     1     -12.056   0.011 -16.655  0.00  0.00    +0.035 A 
ATOM     10  C   UNL     1     -11.119  -0.954 -16.296  0.00  0.00    +0.004 A 
ENDBRANCH   4   8
ENDBRANCH   3   4
ENDBRANCH   1   3
BRANCH   2  11
ATOM     11  C   UNL     1     -16.164   2.299 -15.015  0.00  0.00    +0.102 C 
BRANCH  11  12
ATOM     12  S   UNL     1     -16.755   3.963 -14.612  0.00  0.00    -0.102 S 
BRANCH  12  13
ATOM     13  C   UNL     1     -16.457   3.896 -12.860  0.00  0.00    +0.097 A 
ATOM     14  N   UNL     1     -15.453   4.664 -12.378  0.00  0.00    -0.249 NA
ATOM     15  C   UNL     1     -15.224   4.613 -11.048  0.00  0.00    +0.112 A 
ATOM     16  C   UNL     1     -15.965   3.845 -10.168  0.00  0.00    +0.020 A 
ATOM     17  C   UNL     1     -16.996   3.069 -10.682  0.00  0.00    +0.004 A 
ATOM     18  C   UNL     1     -17.244   3.087 -12.052  0.00  0.00    +0.035 A 
ENDBRANCH  12  13
ENDBRANCH  11  12
ENDBRANCH   2  11
TORSDOF 6
ENDMDL
MODEL 2
REMARK VINA RESULT:      -6.5      0.684      7.491
REMARK  Name = min_compound916.pdb
REMARK  6 active torsions:
REMARK  status: ('A' for Active; 'I' for Inactive)
REMARK    1  A    between atoms: _6  and  _7
REMARK    2  A    between atoms: _7  and  _15
REMARK    3  A    between atoms: _8  and  _9
REMARK    4  A    between atoms: _8  and  _18
REMARK    5  A    between atoms: _15  and  _16
REMARK    6  A    between atoms: _17  and  _18
REMARK                            x       y       z     vdW  Elec       q    Type
REMARK                         _______ _______ _______ _____ _____    ______ ____
ROOT
ATOM      1  C   UNL     1     -14.932   2.441 -15.999  0.00  0.00    -0.019 C 
ATOM      2  C   UNL     1     -13.780   3.065 -15.698  0.00  0.00    -0.019 C 
ENDROOT
BRANCH   1   3
ATOM      3  C   UNL     1     -16.032   2.146 -15.026  0.00  0.00    +0.102 C 
BRANCH   3   4
ATOM      4  S   UNL     1     -16.904   3.689 -14.633  0.00  0.00    -0.102 S 
BRANCH   4   8
ATOM      5  C   UNL     1     -15.981   3.882 -10.216  0.00  0.00    +0.020 A 
ATOM      6  C   UNL     1     -16.998   3.115 -10.755  0.00  0.00    +0.112 A 
ATOM      7  N   UNL     1     -17.281   3.062 -12.074  0.00  0.00    -0.249 NA
ATOM      8  C   UNL     1     -16.511   3.799 -12.905  0.00  0.00    +0.097 A 
ATOM      9  C   UNL     1     -15.465   4.594 -12.450  0.00  0.00    +0.035 A 
ATOM     10  C   UNL     1     -15.202   4.638 -11.084  0.00  0.00    +0.004 A 
ENDBRANCH   4   8
ENDBRANCH   3   4
ENDBRANCH   1   3
BRANCH   2  11
ATOM     11  C   UNL     1     -12.716   3.361 -16.713  0.00  0.00    +0.102 C 
BRANCH  11  12
ATOM     12  S   UNL     1     -12.822   2.173 -18.077  0.00  0.00    -0.102 S 
BRANCH  12  13
ATOM     13  C   UNL     1     -11.642   0.999 -17.452  0.00  0.00    +0.097 A 
ATOM     14  N   UNL     1     -10.339   1.232 -17.727  0.00  0.00    -0.249 NA
ATOM     15  C   UNL     1      -9.441   0.341 -17.255  0.00  0.00    +0.112 A 
ATOM     16  C   UNL     1      -9.781  -0.769 -16.500  0.00  0.00    +0.020 A 
ATOM     17  C   UNL     1     -11.125  -0.986 -16.223  0.00  0.00    +0.004 A 
ATOM     18  C   UNL     1     -12.075  -0.094 -16.712  0.00  0.00    +0.035 A 
ENDBRANCH  12  13
ENDBRANCH  11  12
ENDBRANCH   2  11
TORSDOF 6
ENDMDL
MODEL 3
REMARK VINA RESULT:      -6.0      8.105     10.871
REMARK  Name = min_compound916.pdb
REMARK  6 active torsions:
REMARK  status: ('A' for Active; 'I' for Inactive)
REMARK    1  A    between atoms: _6  and  _7
REMARK    2  A    between atoms: _7  and  _15
REMARK    3  A    between atoms: _8  and  _9
REMARK    4  A    between atoms: _8  and  _18
REMARK    5  A    between atoms: _15  and  _16
REMARK    6  A    between atoms: _17  and  _18
REMARK                            x       y       z     vdW  Elec       q    Type
REMARK                         _______ _______ _______ _____ _____    ______ ____
ROOT
ATOM      1  C   UNL     1     -18.097   3.675  -5.401  0.00  0.00    -0.019 C 
ATOM      2  C   UNL     1     -17.734   2.912  -6.446  0.00  0.00    -0.019 C 
ENDROOT
BRANCH   1   3
ATOM      3  C   UNL     1     -17.840   3.345  -3.962  0.00  0.00    +0.102 C 
BRANCH   3   4
ATOM      4  S   UNL     1     -17.714   1.544  -3.782  0.00  0.00    -0.102 S 
BRANCH   4   8
ATOM      5  C   UNL     1     -13.246   1.068  -3.329  0.00  0.00    +0.020 A 
ATOM      6  C   UNL     1     -14.151   0.040  -3.134  0.00  0.00    +0.112 A 
ATOM      7  N   UNL     1     -15.487   0.182  -3.260  0.00  0.00    -0.249 NA
ATOM      8  C   UNL     1     -15.952   1.403  -3.608  0.00  0.00    +0.097 A 
ATOM      9  C   UNL     1     -15.114   2.489  -3.830  0.00  0.00    +0.035 A 
ATOM     10  C   UNL     1     -13.740   2.317  -3.682  0.00  0.00    +0.004 A 
ENDBRANCH   4   8
ENDBRANCH   3   4
ENDBRANCH   1   3
BRANCH   2  11
ATOM     11  C   UNL     1     -17.992   3.295  -7.873  0.00  0.00    +0.102 C 
BRANCH  11  12
ATOM     12  S   UNL     1     -16.519   2.960  -8.874  0.00  0.00    -0.102 S 
BRANCH  12  13
ATOM     13  C   UNL     1     -16.019   1.464  -8.054  0.00  0.00    +0.097 A 
ATOM     14  N   UNL     1     -16.873   0.416  -8.110  0.00  0.00    -0.249 NA
ATOM     15  C   UNL     1     -16.495  -0.720  -7.487  0.00  0.00    +0.112 A 
ATOM     16  C   UNL     1     -15.290  -0.870  -6.824  0.00  0.00    +0.020 A 
ATOM     17  C   UNL     1     -14.424   0.215  -6.784  0.00  0.00    +0.004 A 
ATOM     18  C   UNL     1     -14.794   1.406  -7.402  0.00  0.00    +0.035 A 
ENDBRANCH  12  13
ENDBRANCH  11  12
ENDBRANCH   2  11
TORSDOF 6
ENDMDL
MODEL 4
REMARK VINA RESULT:      -6.0      5.171      9.095
REMARK  Name = min_compound916.pdb
REMARK  6 active torsions:
REMARK  status: ('A' for Active; 'I' for Inactive)
REMARK    1  A    between atoms: _6  and  _7
REMARK    2  A    between atoms: _7  and  _15
REMARK    3  A    between atoms: _8  and  _9
REMARK    4  A    between atoms: _8  and  _18
REMARK    5  A    between atoms: _15  and  _16
REMARK    6  A    between atoms: _17  and  _18
REMARK                            x       y       z     vdW  Elec       q    Type
REMARK                         _______ _______ _______ _____ _____    ______ ____
ROOT
ATOM      1  C   UNL     1     -16.896   1.352  -8.431  0.00  0.00    -0.019 C 
ATOM      2  C   UNL     1     -16.401   2.510  -8.899  0.00  0.00    -0.019 C 
ENDROOT
BRANCH   1   3
ATOM      3  C   UNL     1     -16.140   0.367  -7.593  0.00  0.00    +0.102 C 
BRANCH   3   4
ATOM      4  S   UNL     1     -14.492   1.037  -7.236  0.00  0.00    -0.102 S 
BRANCH   4   8
ATOM      5  C   UNL     1     -14.158  -0.343  -2.948  0.00  0.00    +0.020 A 
ATOM      6  C   UNL     1     -14.623  -1.142  -3.978  0.00  0.00    +0.112 A 
ATOM      7  N   UNL     1     -14.732  -0.728  -5.258  0.00  0.00    -0.249 NA
ATOM      8  C   UNL     1     -14.350   0.538  -5.537  0.00  0.00    +0.097 A 
ATOM      9  C   UNL     1     -13.865   1.406  -4.566  0.00  0.00    +0.035 A 
ATOM     10  C   UNL     1     -13.774   0.957  -3.251  0.00  0.00    +0.004 A 
ENDBRANCH   4   8
ENDBRANCH   3   4
ENDBRANCH   1   3
BRANCH   2  11
ATOM     11  C   UNL     1     -17.205   3.479  -9.715  0.00  0.00    +0.102 C 
BRANCH  11  12
ATOM     12  S   UNL     1     -16.114   4.746 -10.413  0.00  0.00    -0.102 S 
BRANCH  12  13
ATOM     13  C   UNL     1     -16.021   4.087 -12.062  0.00  0.00    +0.097 A 
ATOM     14  N   UNL     1     -14.998   4.513 -12.838  0.00  0.00    -0.249 NA
ATOM     15  C   UNL     1     -14.926   4.015 -14.090  0.00  0.00    +0.112 A 
ATOM     16  C   UNL     1     -15.819   3.091 -14.604  0.00  0.00    +0.020 A 
ATOM     17  C   UNL     1     -16.859   2.661 -13.789  0.00  0.00    +0.004 A 
ATOM     18  C   UNL     1     -16.969   3.171 -12.498  0.00  0.00    +0.035 A 
ENDBRANCH  12  13
ENDBRANCH  11  12
ENDBRANCH   2  11
TORSDOF 6
ENDMDL
MODEL 5
REMARK VINA RESULT:      -5.9      2.715      6.720
REMARK  Name = min_compound916.pdb
REMARK  6 active torsions:
REMARK  status: ('A' for Active; 'I' for Inactive)
REMARK    1  A    between atoms: _6  and  _7
REMARK    2  A    between atoms: _7  and  _15
REMARK    3  A    between atoms: _8  and  _9
REMARK    4  A    between atoms: _8  and  _18
REMARK    5  A    between atoms: _15  and  _16
REMARK    6  A    between atoms: _17  and  _18
REMARK                            x       y       z     vdW  Elec       q    Type
REMARK                         _______ _______ _______ _____ _____    ______ ____
ROOT
ATOM      1  C   UNL     1     -12.209   4.757 -18.008  0.00  0.00    -0.019 C 
ATOM      2  C   UNL     1     -11.288   5.060 -17.076  0.00  0.00    -0.019 C 
ENDROOT
BRANCH   1   3
ATOM      3  C   UNL     1     -13.111   5.745 -18.682  0.00  0.00    +0.102 C 
BRANCH   3   4
ATOM      4  S   UNL     1     -14.771   5.027 -18.826  0.00  0.00    -0.102 S 
BRANCH   4   8
ATOM      5  C   UNL     1     -15.246   3.567 -14.579  0.00  0.00    +0.020 A 
ATOM      6  C   UNL     1     -15.151   4.903 -14.925  0.00  0.00    +0.112 A 
ATOM      7  N   UNL     1     -15.001   5.341 -16.192  0.00  0.00    -0.249 NA
ATOM      8  C   UNL     1     -14.952   4.409 -17.170  0.00  0.00    +0.097 A 
ATOM      9  C   UNL     1     -15.046   3.046 -16.914  0.00  0.00    +0.035 A 
ATOM     10  C   UNL     1     -15.190   2.621 -15.595  0.00  0.00    +0.004 A 
ENDBRANCH   4   8
ENDBRANCH   3   4
ENDBRANCH   1   3
BRANCH   2  11
ATOM     11  C   UNL     1     -10.390   4.038 -16.445  0.00  0.00    +0.102 C 
BRANCH  11  12
ATOM     12  S   UNL     1     -11.364   2.930 -15.394  0.00  0.00    -0.102 S 
BRANCH  12  13
ATOM     13  C   UNL     1     -10.840   1.397 -16.125  0.00  0.00    +0.097 A 
ATOM     14  N   UNL     1     -11.257   1.143 -17.387  0.00  0.00    -0.249 NA
ATOM     15  C   UNL     1     -10.860  -0.021 -17.943  0.00  0.00    +0.112 A 
ATOM     16  C   UNL     1     -10.047  -0.942 -17.306  0.00  0.00    +0.020 A 
ATOM     17  C   UNL     1      -9.623  -0.659 -16.013  0.00  0.00    +0.004 A 
ATOM     18  C   UNL     1     -10.031   0.526 -15.407  0.00  0.00    +0.035 A 
ENDBRANCH  12  13
ENDBRANCH  11  12
ENDBRANCH   2  11
TORSDOF 6
ENDMDL
MODEL 6
REMARK VINA RESULT:      -5.9      1.921      8.135
REMARK  Name = min_compound916.pdb
REMARK  6 active torsions:
REMARK  status: ('A' for Active; 'I' for Inactive)
REMARK    1  A    between atoms: _6  and  _7
REMARK    2  A    between atoms: _7  and  _15
REMARK    3  A    between atoms: _8  and  _9
REMARK    4  A    between atoms: _8  and  _18
REMARK    5  A    between atoms: _15  and  _16
REMARK    6  A    between atoms: _17  and  _18
REMARK                            x       y       z     vdW  Elec       q    Type
REMARK                         _______ _______ _______ _____ _____    ______ ____
ROOT
ATOM      1  C   UNL     1     -15.874   3.953 -14.019  0.00  0.00    -0.019 C 
ATOM      2  C   UNL     1     -14.626   3.910 -14.518  0.00  0.00    -0.019 C 
ENDROOT
BRANCH   1   3
ATOM      3  C   UNL     1     -16.304   4.775 -12.842  0.00  0.00    +0.102 C 
BRANCH   3   4
ATOM      4  S   UNL     1     -14.944   4.844 -11.641  0.00  0.00    -0.102 S 
BRANCH   4   8
ATOM      5  C   UNL     1     -17.337   4.341  -7.844  0.00  0.00    +0.020 A 
ATOM      6  C   UNL     1     -16.995   5.570  -8.379  0.00  0.00    +0.112 A 
ATOM      7  N   UNL     1     -16.273   5.722  -9.509  0.00  0.00    -0.249 NA
ATOM      8  C   UNL     1     -15.877   4.600 -10.149  0.00  0.00    +0.097 A 
ATOM      9  C   UNL     1     -16.182   3.325  -9.687  0.00  0.00    +0.035 A 
ATOM     10  C   UNL     1     -16.919   3.197  -8.513  0.00  0.00    +0.004 A 
ENDBRANCH   4   8
ENDBRANCH   3   4
ENDBRANCH   1   3
BRANCH   2  11
ATOM     11  C   UNL     1     -14.248   3.090 -15.716  0.00  0.00    +0.102 C 
BRANCH  11  12
ATOM     12  S   UNL     1     -12.599   3.571 -16.292  0.00  0.00    -0.102 S 
BRANCH  12  13
ATOM     13  C   UNL     1     -11.854   1.958 -16.230  0.00  0.00    +0.097 A 
ATOM     14  N   UNL     1     -12.539   0.941 -16.803  0.00  0.00    -0.249 NA
ATOM     15  C   UNL     1     -11.976  -0.284 -16.757  0.00  0.00    +0.112 A 
ATOM     16  C   UNL     1     -10.744  -0.544 -16.180  0.00  0.00    +0.020 A 
ATOM     17  C   UNL     1     -10.053   0.514 -15.604  0.00  0.00    +0.004 A 
ATOM     18  C   UNL     1     -10.618   1.786 -15.621  0.00  0.00    +0.035 A 
ENDBRANCH  12  13
ENDBRANCH  11  12
ENDBRANCH   2  11
TORSDOF 6
ENDMDL
MODEL 7
REMARK VINA RESULT:      -5.8      1.644      7.206
REMARK  Name = min_compound916.pdb
REMARK  6 active torsions:
REMARK  status: ('A' for Active; 'I' for Inactive)
REMARK    1  A    between atoms: _6  and  _7
REMARK    2  A    between atoms: _7  and  _15
REMARK    3  A    between atoms: _8  and  _9
REMARK    4  A    between atoms: _8  and  _18
REMARK    5  A    between atoms: _15  and  _16
REMARK    6  A    between atoms: _17  and  _18
REMARK                            x       y       z     vdW  Elec       q    Type
REMARK                         _______ _______ _______ _____ _____    ______ ____
ROOT
ATOM      1  C   UNL     1     -13.362   4.948 -16.518  0.00  0.00    -0.019 C 
ATOM      2  C   UNL     1     -12.784   3.998 -17.274  0.00  0.00    -0.019 C 
ENDROOT
BRANCH   1   3
ATOM      3  C   UNL     1     -14.837   5.095 -16.297  0.00  0.00    +0.102 C 
BRANCH   3   4
ATOM      4  S   UNL     1     -15.562   3.452 -16.035  0.00  0.00    -0.102 S 
BRANCH   4   8
ATOM      5  C   UNL     1     -16.416   3.873 -11.620  0.00  0.00    +0.020 A 
ATOM      6  C   UNL     1     -15.412   4.561 -12.277  0.00  0.00    +0.112 A 
ATOM      7  N   UNL     1     -15.149   4.430 -13.594  0.00  0.00    -0.249 NA
ATOM      8  C   UNL     1     -15.928   3.583 -14.302  0.00  0.00    +0.097 A 
ATOM      9  C   UNL     1     -16.964   2.856 -13.725  0.00  0.00    +0.035 A 
ATOM     10  C   UNL     1     -17.205   3.002 -12.361  0.00  0.00    +0.004 A 
ENDBRANCH   4   8
ENDBRANCH   3   4
ENDBRANCH   1   3
BRANCH   2  11
ATOM     11  C   UNL     1     -11.300   3.876 -17.447  0.00  0.00    +0.102 C 
BRANCH  11  12
ATOM     12  S   UNL     1     -10.543   3.348 -15.887  0.00  0.00    -0.102 S 
BRANCH  12  13
ATOM     13  C   UNL     1     -10.363   1.625 -16.289  0.00  0.00    +0.097 A 
ATOM     14  N   UNL     1      -9.967   0.800 -15.294  0.00  0.00    -0.249 NA
ATOM     15  C   UNL     1      -9.829  -0.508 -15.597  0.00  0.00    +0.112 A 
ATOM     16  C   UNL     1     -10.087  -1.040 -16.849  0.00  0.00    +0.020 A 
ATOM     17  C   UNL     1     -10.500  -0.176 -17.855  0.00  0.00    +0.004 A 
ATOM     18  C   UNL     1     -10.634   1.181 -17.577  0.00  0.00    +0.035 A 
ENDBRANCH  12  13
ENDBRANCH  11  12
ENDBRANCH   2  11
TORSDOF 6
ENDMDL
MODEL 8
REMARK VINA RESULT:      -5.6      3.658      5.809
REMARK  Name = min_compound916.pdb
REMARK  6 active torsions:
REMARK  status: ('A' for Active; 'I' for Inactive)
REMARK    1  A    between atoms: _6  and  _7
REMARK    2  A    between atoms: _7  and  _15
REMARK    3  A    between atoms: _8  and  _9
REMARK    4  A    between atoms: _8  and  _18
REMARK    5  A    between atoms: _15  and  _16
REMARK    6  A    between atoms: _17  and  _18
REMARK                            x       y       z     vdW  Elec       q    Type
REMARK                         _______ _______ _______ _____ _____    ______ ____
ROOT
ATOM      1  C   UNL     1     -14.022   4.396 -15.770  0.00  0.00    -0.019 C 
ATOM      2  C   UNL     1     -14.644   4.775 -16.900  0.00  0.00    -0.019 C 
ENDROOT
BRANCH   1   3
ATOM      3  C   UNL     1     -13.054   3.257 -15.660  0.00  0.00    +0.102 C 
BRANCH   3   4
ATOM      4  S   UNL     1     -13.003   2.370 -17.243  0.00  0.00    -0.102 S 
BRANCH   4   8
ATOM      5  C   UNL     1      -9.621  -0.521 -16.460  0.00  0.00    +0.020 A 
ATOM      6  C   UNL     1     -10.385  -0.527 -17.614  0.00  0.00    +0.112 A 
ATOM      7  N   UNL     1     -11.402   0.331 -17.846  0.00  0.00    -0.249 NA
ATOM      8  C   UNL     1     -11.670   1.249 -16.891  0.00  0.00    +0.097 A 
ATOM      9  C   UNL     1     -10.950   1.331 -15.705  0.00  0.00    +0.035 A 
ATOM     10  C   UNL     1      -9.913   0.427 -15.487  0.00  0.00    +0.004 A 
ENDBRANCH   4   8
ENDBRANCH   3   4
ENDBRANCH   1   3
BRANCH   2  11
ATOM     11  C   UNL     1     -15.588   5.939 -16.966  0.00  0.00    +0.102 C 
BRANCH  11  12
ATOM     12  S   UNL     1     -14.651   7.490 -16.944  0.00  0.00    -0.102 S 
BRANCH  12  13
ATOM     13  C   UNL     1     -13.707   7.211 -18.424  0.00  0.00    +0.097 A 
ATOM     14  N   UNL     1     -14.401   7.012 -19.568  0.00  0.00    -0.249 NA
ATOM     15  C   UNL     1     -13.685   6.799 -20.693  0.00  0.00    +0.112 A 
ATOM     16  C   UNL     1     -12.302   6.793 -20.737  0.00  0.00    +0.020 A 
ATOM     17  C   UNL     1     -11.608   7.006 -19.552  0.00  0.00    +0.004 A 
ATOM     18  C   UNL     1     -12.319   7.211 -18.373  0.00  0.00    +0.035 A 
ENDBRANCH  12  13
ENDBRANCH  11  12
ENDBRANCH   2  11
TORSDOF 6
ENDMDL
MODEL 9
REMARK VINA RESULT:      -5.5      4.438      5.268
REMARK  Name = min_compound916.pdb
REMARK  6 active torsions:
REMARK  status: ('A' for Active; 'I' for Inactive)
REMARK    1  A    between atoms: _6  and  _7
REMARK    2  A    between atoms: _7  and  _15
REMARK    3  A    between atoms: _8  and  _9
REMARK    4  A    between atoms: _8  and  _18
REMARK    5  A    between atoms: _15  and  _16
REMARK    6  A    between atoms: _17  and  _18
REMARK                            x       y       z     vdW  Elec       q    Type
REMARK                         _______ _______ _______ _____ _____    ______ ____
ROOT
ATOM      1  C   UNL     1     -12.175   5.510 -17.998  0.00  0.00    -0.019 C 
ATOM      2  C   UNL     1     -12.855   6.452 -17.322  0.00  0.00    -0.019 C 
ENDROOT
BRANCH   1   3
ATOM      3  C   UNL     1     -11.480   4.336 -17.379  0.00  0.00    +0.102 C 
BRANCH   3   4
ATOM      4  S   UNL     1     -12.638   3.480 -16.274  0.00  0.00    -0.102 S 
BRANCH   4   8
ATOM      5  C   UNL     1     -10.717  -0.607 -16.193  0.00  0.00    +0.020 A 
ATOM      6  C   UNL     1     -11.998  -0.370 -16.660  0.00  0.00    +0.112 A 
ATOM      7  N   UNL     1     -12.577   0.849 -16.677  0.00  0.00    -0.249 NA
ATOM      8  C   UNL     1     -11.847   1.890 -16.218  0.00  0.00    +0.097 A 
ATOM      9  C   UNL     1     -10.551   1.744 -15.737  0.00  0.00    +0.035 A 
ATOM     10  C   UNL     1      -9.982   0.473 -15.720  0.00  0.00    +0.004 A 
ENDBRANCH   4   8
ENDBRANCH   3   4
ENDBRANCH   1   3
BRANCH   2  11
ATOM     11  C   UNL     1     -13.556   7.598 -17.988  0.00  0.00    +0.102 C 
BRANCH  11  12
ATOM     12  S   UNL     1     -15.342   7.297 -18.005  0.00  0.00    -0.102 S 
BRANCH  12  13
ATOM     13  C   UNL     1     -15.821   8.693 -17.013  0.00  0.00    +0.097 A 
ATOM     14  N   UNL     1     -15.620   8.598 -15.679  0.00  0.00    -0.249 NA
ATOM     15  C   UNL     1     -15.983   9.656 -14.924  0.00  0.00    +0.112 A 
ATOM     16  C   UNL     1     -16.524  10.821 -15.441  0.00  0.00    +0.020 A 
ATOM     17  C   UNL     1     -16.716  10.902 -16.815  0.00  0.00    +0.004 A 
ATOM     18  C   UNL     1     -16.367   9.818 -17.617  0.00  0.00    +0.035 A 
ENDBRANCH  12  13
ENDBRANCH  11  12
ENDBRANCH   2  11
TORSDOF 6
ENDMDL
