MODEL 1
REMARK VINA RESULT:      -7.7      0.000      0.000
REMARK  Name = min_compound985.pdb
REMARK  9 active torsions:
REMARK  status: ('A' for Active; 'I' for Inactive)
REMARK    1  A    between atoms: _1  and  _7
REMARK    2  A    between atoms: _4  and  _14
REMARK    3  A    between atoms: _7  and  _8
REMARK    4  A    between atoms: _14  and  _15
REMARK    5  A    between atoms: _15  and  _16
REMARK    6  A    between atoms: _16  and  _18
REMARK    7  A    between atoms: _18  and  _19
REMARK    8  A    between atoms: _18  and  _20
REMARK    9  A    between atoms: _18  and  _21
REMARK                            x       y       z     vdW  Elec       q    Type
REMARK                         _______ _______ _______ _____ _____    ______ ____
ROOT
ATOM      1  C   UNL     1     -14.063   2.735 -15.854  0.00  0.00    +0.128 A 
ATOM      2  C   UNL     1     -15.194   1.927 -15.753  0.00  0.00    +0.046 A 
ATOM      3  C   UNL     1     -16.179   2.207 -14.800  0.00  0.00    +0.007 A 
ATOM      4  C   UNL     1     -16.045   3.287 -13.920  0.00  0.00    -0.047 A 
ATOM      5  C   UNL     1     -14.908   4.100 -14.035  0.00  0.00    +0.007 A 
ATOM      6  C   UNL     1     -13.914   3.819 -14.986  0.00  0.00    +0.046 A 
ENDROOT
BRANCH   1   7
ATOM      7  O   UNL     1     -13.119   2.330 -16.769  0.00  0.00    -0.456 OA
BRANCH   7   8
ATOM      8  C   UNL     1     -12.132   1.454 -16.388  0.00  0.00    +0.128 A 
ATOM      9  C   UNL     1     -12.246   0.147 -16.866  0.00  0.00    +0.046 A 
ATOM     10  C   UNL     1     -11.254  -0.793 -16.584  0.00  0.00    +0.004 A 
ATOM     11  C   UNL     1     -10.138  -0.420 -15.833  0.00  0.00    +0.000 A 
ATOM     12  C   UNL     1     -10.011   0.893 -15.375  0.00  0.00    +0.004 A 
ATOM     13  C   UNL     1     -11.002   1.836 -15.662  0.00  0.00    +0.046 A 
ENDBRANCH   7   8
ENDBRANCH   1   7
BRANCH   4  14
ATOM     14  C   UNL     1     -17.071   3.584 -12.902  0.00  0.00    +0.042 C 
BRANCH  14  15
ATOM     15  C   UNL     1     -17.038   3.210 -11.497  0.00  0.00    +0.079 C 
BRANCH  15  16
ATOM     16  C   UNL     1     -16.343   3.874 -10.536  0.00  0.00    +0.139 C 
ATOM     17  O   UNL     1     -15.377   4.694 -10.675  0.00  0.00    -0.297 OA
BRANCH  16  18
ATOM     18  C   UNL     1     -16.789   3.763  -9.108  0.00  0.00    +0.021 C 
ATOM     19  C   UNL     1     -16.819   2.269  -9.233  0.00  0.00    +0.018 C 
ATOM     20  C   UNL     1     -16.760   5.258  -8.983  0.00  0.00    +0.018 C 
ATOM     21  C   UNL     1     -17.235   3.653  -7.680  0.00  0.00    +0.018 C 
ENDBRANCH  16  18
ENDBRANCH  15  16
ENDBRANCH  14  15
ENDBRANCH   4  14
TORSDOF 6
ENDMDL
MODEL 2
REMARK VINA RESULT:      -7.6      4.509      7.589
REMARK  Name = min_compound985.pdb
REMARK  9 active torsions:
REMARK  status: ('A' for Active; 'I' for Inactive)
REMARK    1  A    between atoms: _1  and  _7
REMARK    2  A    between atoms: _4  and  _14
REMARK    3  A    between atoms: _7  and  _8
REMARK    4  A    between atoms: _14  and  _15
REMARK    5  A    between atoms: _15  and  _16
REMARK    6  A    between atoms: _16  and  _18
REMARK    7  A    between atoms: _18  and  _19
REMARK    8  A    between atoms: _18  and  _20
REMARK    9  A    between atoms: _18  and  _21
REMARK                            x       y       z     vdW  Elec       q    Type
REMARK                         _______ _______ _______ _____ _____    ______ ____
ROOT
ATOM      1  C   UNL     1     -16.759   1.828  -8.656  0.00  0.00    +0.128 A 
ATOM      2  C   UNL     1     -17.402   0.643  -8.303  0.00  0.00    +0.046 A 
ATOM      3  C   UNL     1     -16.769  -0.283  -7.468  0.00  0.00    +0.007 A 
ATOM      4  C   UNL     1     -15.476  -0.051  -6.984  0.00  0.00    -0.047 A 
ATOM      5  C   UNL     1     -14.840   1.148  -7.337  0.00  0.00    +0.007 A 
ATOM      6  C   UNL     1     -15.470   2.077  -8.181  0.00  0.00    +0.046 A 
ENDROOT
BRANCH   1   7
ATOM      7  O   UNL     1     -17.435   2.634  -9.543  0.00  0.00    -0.456 OA
BRANCH   7   8
ATOM      8  C   UNL     1     -16.753   3.238 -10.571  0.00  0.00    +0.128 A 
ATOM      9  C   UNL     1     -17.172   2.918 -11.864  0.00  0.00    +0.046 A 
ATOM     10  C   UNL     1     -16.580   3.537 -12.966  0.00  0.00    +0.004 A 
ATOM     11  C   UNL     1     -15.577   4.487 -12.773  0.00  0.00    +0.000 A 
ATOM     12  C   UNL     1     -15.175   4.825 -11.480  0.00  0.00    +0.004 A 
ATOM     13  C   UNL     1     -15.771   4.211 -10.375  0.00  0.00    +0.046 A 
ENDBRANCH   7   8
ENDBRANCH   1   7
BRANCH   4  14
ATOM     14  C   UNL     1     -14.792  -1.027  -6.113  0.00  0.00    +0.042 C 
BRANCH  14  15
ATOM     15  C   UNL     1     -14.502  -0.875  -4.696  0.00  0.00    +0.079 C 
BRANCH  15  16
ATOM     16  C   UNL     1     -15.110   0.020  -3.873  0.00  0.00    +0.139 C 
ATOM     17  O   UNL     1     -16.117  -0.154  -3.112  0.00  0.00    -0.297 OA
BRANCH  16  18
ATOM     18  C   UNL     1     -14.500   1.380  -3.701  0.00  0.00    +0.021 C 
ATOM     19  C   UNL     1     -13.183   0.747  -3.364  0.00  0.00    +0.018 C 
ATOM     20  C   UNL     1     -15.817   2.013  -4.039  0.00  0.00    +0.018 C 
ATOM     21  C   UNL     1     -13.890   2.739  -3.530  0.00  0.00    +0.018 C 
ENDBRANCH  16  18
ENDBRANCH  15  16
ENDBRANCH  14  15
ENDBRANCH   4  14
TORSDOF 6
ENDMDL
MODEL 3
REMARK VINA RESULT:      -7.6      1.150      1.991
REMARK  Name = min_compound985.pdb
REMARK  9 active torsions:
REMARK  status: ('A' for Active; 'I' for Inactive)
REMARK    1  A    between atoms: _1  and  _7
REMARK    2  A    between atoms: _4  and  _14
REMARK    3  A    between atoms: _7  and  _8
REMARK    4  A    between atoms: _14  and  _15
REMARK    5  A    between atoms: _15  and  _16
REMARK    6  A    between atoms: _16  and  _18
REMARK    7  A    between atoms: _18  and  _19
REMARK    8  A    between atoms: _18  and  _20
REMARK    9  A    between atoms: _18  and  _21
REMARK                            x       y       z     vdW  Elec       q    Type
REMARK                         _______ _______ _______ _____ _____    ______ ____
ROOT
ATOM      1  C   UNL     1     -13.384   2.824 -15.986  0.00  0.00    +0.128 A 
ATOM      2  C   UNL     1     -13.643   3.894 -15.132  0.00  0.00    +0.046 A 
ATOM      3  C   UNL     1     -14.876   3.995 -14.480  0.00  0.00    +0.007 A 
ATOM      4  C   UNL     1     -15.879   3.039 -14.681  0.00  0.00    -0.047 A 
ATOM      5  C   UNL     1     -15.605   1.960 -15.535  0.00  0.00    +0.007 A 
ATOM      6  C   UNL     1     -14.371   1.859 -16.197  0.00  0.00    +0.046 A 
ENDROOT
BRANCH   1   7
ATOM      7  O   UNL     1     -12.173   2.859 -16.638  0.00  0.00    -0.456 OA
BRANCH   7   8
ATOM      8  C   UNL     1     -11.397   1.727 -16.695  0.00  0.00    +0.128 A 
ATOM      9  C   UNL     1     -10.690   1.401 -15.535  0.00  0.00    +0.046 A 
ATOM     10  C   UNL     1      -9.929   0.233 -15.482  0.00  0.00    +0.004 A 
ATOM     11  C   UNL     1      -9.886  -0.618 -16.587  0.00  0.00    +0.000 A 
ATOM     12  C   UNL     1     -10.611  -0.305 -17.738  0.00  0.00    +0.004 A 
ATOM     13  C   UNL     1     -11.378   0.862 -17.791  0.00  0.00    +0.046 A 
ENDBRANCH   7   8
ENDBRANCH   1   7
BRANCH   4  14
ATOM     14  C   UNL     1     -17.188   3.141 -14.008  0.00  0.00    +0.042 C 
BRANCH  14  15
ATOM     15  C   UNL     1     -17.457   2.950 -12.592  0.00  0.00    +0.079 C 
BRANCH  15  16
ATOM     16  C   UNL     1     -17.336   3.917 -11.644  0.00  0.00    +0.139 C 
ATOM     17  O   UNL     1     -17.746   5.123 -11.681  0.00  0.00    -0.297 OA
BRANCH  16  18
ATOM     18  C   UNL     1     -16.754   3.559 -10.309  0.00  0.00    +0.021 C 
ATOM     19  C   UNL     1     -15.463   4.218 -10.695  0.00  0.00    +0.018 C 
ATOM     20  C   UNL     1     -18.045   2.899  -9.924  0.00  0.00    +0.018 C 
ATOM     21  C   UNL     1     -16.172   3.200  -8.974  0.00  0.00    +0.018 C 
ENDBRANCH  16  18
ENDBRANCH  15  16
ENDBRANCH  14  15
ENDBRANCH   4  14
TORSDOF 6
ENDMDL
MODEL 4
REMARK VINA RESULT:      -7.5      1.564      2.334
REMARK  Name = min_compound985.pdb
REMARK  9 active torsions:
REMARK  status: ('A' for Active; 'I' for Inactive)
REMARK    1  A    between atoms: _1  and  _7
REMARK    2  A    between atoms: _4  and  _14
REMARK    3  A    between atoms: _7  and  _8
REMARK    4  A    between atoms: _14  and  _15
REMARK    5  A    between atoms: _15  and  _16
REMARK    6  A    between atoms: _16  and  _18
REMARK    7  A    between atoms: _18  and  _19
REMARK    8  A    between atoms: _18  and  _20
REMARK    9  A    between atoms: _18  and  _21
REMARK                            x       y       z     vdW  Elec       q    Type
REMARK                         _______ _______ _______ _____ _____    ______ ____
ROOT
ATOM      1  C   UNL     1     -13.231   2.515 -17.200  0.00  0.00    +0.128 A 
ATOM      2  C   UNL     1     -14.452   3.003 -17.663  0.00  0.00    +0.046 A 
ATOM      3  C   UNL     1     -15.206   3.879 -16.876  0.00  0.00    +0.007 A 
ATOM      4  C   UNL     1     -14.765   4.270 -15.606  0.00  0.00    -0.047 A 
ATOM      5  C   UNL     1     -13.531   3.781 -15.152  0.00  0.00    +0.007 A 
ATOM      6  C   UNL     1     -12.774   2.896 -15.937  0.00  0.00    +0.046 A 
ENDROOT
BRANCH   1   7
ATOM      7  O   UNL     1     -12.605   1.601 -18.015  0.00  0.00    -0.456 OA
BRANCH   7   8
ATOM      8  C   UNL     1     -11.664   0.750 -17.489  0.00  0.00    +0.128 A 
ATOM      9  C   UNL     1     -10.329   1.065 -17.750  0.00  0.00    +0.046 A 
ATOM     10  C   UNL     1      -9.305   0.294 -17.199  0.00  0.00    +0.004 A 
ATOM     11  C   UNL     1      -9.618  -0.787 -16.374  0.00  0.00    +0.000 A 
ATOM     12  C   UNL     1     -10.951  -1.088 -16.092  0.00  0.00    +0.004 A 
ATOM     13  C   UNL     1     -11.977  -0.313 -16.639  0.00  0.00    +0.046 A 
ENDBRANCH   7   8
ENDBRANCH   1   7
BRANCH   4  14
ATOM     14  C   UNL     1     -15.559   5.183 -14.761  0.00  0.00    +0.042 C 
BRANCH  14  15
ATOM     15  C   UNL     1     -16.313   4.831 -13.569  0.00  0.00    +0.079 C 
BRANCH  15  16
ATOM     16  C   UNL     1     -15.765   4.593 -12.348  0.00  0.00    +0.139 C 
ATOM     17  O   UNL     1     -14.687   5.060 -11.855  0.00  0.00    -0.297 OA
BRANCH  16  18
ATOM     18  C   UNL     1     -16.531   3.772 -11.354  0.00  0.00    +0.021 C 
ATOM     19  C   UNL     1     -15.916   4.555 -10.232  0.00  0.00    +0.018 C 
ATOM     20  C   UNL     1     -17.146   2.988 -12.475  0.00  0.00    +0.018 C 
ATOM     21  C   UNL     1     -17.297   2.950 -10.360  0.00  0.00    +0.018 C 
ENDBRANCH  16  18
ENDBRANCH  15  16
ENDBRANCH  14  15
ENDBRANCH   4  14
TORSDOF 6
ENDMDL
MODEL 5
REMARK VINA RESULT:      -7.4      1.843      7.611
REMARK  Name = min_compound985.pdb
REMARK  9 active torsions:
REMARK  status: ('A' for Active; 'I' for Inactive)
REMARK    1  A    between atoms: _1  and  _7
REMARK    2  A    between atoms: _4  and  _14
REMARK    3  A    between atoms: _7  and  _8
REMARK    4  A    between atoms: _14  and  _15
REMARK    5  A    between atoms: _15  and  _16
REMARK    6  A    between atoms: _16  and  _18
REMARK    7  A    between atoms: _18  and  _19
REMARK    8  A    between atoms: _18  and  _20
REMARK    9  A    between atoms: _18  and  _21
REMARK                            x       y       z     vdW  Elec       q    Type
REMARK                         _______ _______ _______ _____ _____    ______ ____
ROOT
ATOM      1  C   UNL     1     -14.889   4.705 -15.256  0.00  0.00    +0.128 A 
ATOM      2  C   UNL     1     -14.101   3.632 -14.846  0.00  0.00    +0.046 A 
ATOM      3  C   UNL     1     -12.895   3.353 -15.496  0.00  0.00    +0.007 A 
ATOM      4  C   UNL     1     -12.461   4.130 -16.577  0.00  0.00    -0.047 A 
ATOM      5  C   UNL     1     -13.257   5.215 -16.976  0.00  0.00    +0.007 A 
ATOM      6  C   UNL     1     -14.472   5.493 -16.331  0.00  0.00    +0.046 A 
ENDROOT
BRANCH   1   7
ATOM      7  O   UNL     1     -16.092   4.847 -14.604  0.00  0.00    -0.456 OA
BRANCH   7   8
ATOM      8  C   UNL     1     -16.184   4.543 -13.267  0.00  0.00    +0.128 A 
ATOM      9  C   UNL     1     -17.027   3.482 -12.930  0.00  0.00    +0.046 A 
ATOM     10  C   UNL     1     -17.128   3.061 -11.603  0.00  0.00    +0.004 A 
ATOM     11  C   UNL     1     -16.375   3.695 -10.614  0.00  0.00    +0.000 A 
ATOM     12  C   UNL     1     -15.514   4.740 -10.954  0.00  0.00    +0.004 A 
ATOM     13  C   UNL     1     -15.408   5.158 -12.283  0.00  0.00    +0.046 A 
ENDBRANCH   7   8
ENDBRANCH   1   7
BRANCH   4  14
ATOM     14  C   UNL     1     -11.197   3.838 -17.279  0.00  0.00    +0.042 C 
BRANCH  14  15
ATOM     15  C   UNL     1     -10.524   2.551 -17.361  0.00  0.00    +0.079 C 
BRANCH  15  16
ATOM     16  C   UNL     1     -11.131   1.381 -17.695  0.00  0.00    +0.139 C 
ATOM     17  O   UNL     1     -11.940   1.148 -18.651  0.00  0.00    -0.297 OA
BRANCH  16  18
ATOM     18  C   UNL     1     -10.758   0.131 -16.954  0.00  0.00    +0.021 C 
ATOM     19  C   UNL     1     -12.204  -0.113 -16.639  0.00  0.00    +0.018 C 
ATOM     20  C   UNL     1      -9.312   0.376 -17.268  0.00  0.00    +0.018 C 
ATOM     21  C   UNL     1     -10.386  -1.118 -16.212  0.00  0.00    +0.018 C 
ENDBRANCH  16  18
ENDBRANCH  15  16
ENDBRANCH  14  15
ENDBRANCH   4  14
TORSDOF 6
ENDMDL
MODEL 6
REMARK VINA RESULT:      -7.4      1.187      7.758
REMARK  Name = min_compound985.pdb
REMARK  9 active torsions:
REMARK  status: ('A' for Active; 'I' for Inactive)
REMARK    1  A    between atoms: _1  and  _7
REMARK    2  A    between atoms: _4  and  _14
REMARK    3  A    between atoms: _7  and  _8
REMARK    4  A    between atoms: _14  and  _15
REMARK    5  A    between atoms: _15  and  _16
REMARK    6  A    between atoms: _16  and  _18
REMARK    7  A    between atoms: _18  and  _19
REMARK    8  A    between atoms: _18  and  _20
REMARK    9  A    between atoms: _18  and  _21
REMARK                            x       y       z     vdW  Elec       q    Type
REMARK                         _______ _______ _______ _____ _____    ______ ____
ROOT
ATOM      1  C   UNL     1     -16.454   3.889 -12.755  0.00  0.00    +0.128 A 
ATOM      2  C   UNL     1     -17.003   2.840 -13.488  0.00  0.00    +0.046 A 
ATOM      3  C   UNL     1     -16.356   2.363 -14.632  0.00  0.00    +0.007 A 
ATOM      4  C   UNL     1     -15.158   2.936 -15.075  0.00  0.00    -0.047 A 
ATOM      5  C   UNL     1     -14.607   3.986 -14.325  0.00  0.00    +0.007 A 
ATOM      6  C   UNL     1     -15.258   4.472 -13.180  0.00  0.00    +0.046 A 
ENDROOT
BRANCH   1   7
ATOM      7  O   UNL     1     -17.206   4.335 -11.693  0.00  0.00    -0.456 OA
BRANCH   7   8
ATOM      8  C   UNL     1     -17.322   3.559 -10.565  0.00  0.00    +0.128 A 
ATOM      9  C   UNL     1     -16.136   3.271  -9.887  0.00  0.00    +0.046 A 
ATOM     10  C   UNL     1     -16.167   2.545  -8.696  0.00  0.00    +0.004 A 
ATOM     11  C   UNL     1     -17.389   2.119  -8.174  0.00  0.00    +0.000 A 
ATOM     12  C   UNL     1     -18.577   2.427  -8.839  0.00  0.00    +0.004 A 
ATOM     13  C   UNL     1     -18.547   3.158 -10.029  0.00  0.00    +0.046 A 
ENDBRANCH   7   8
ENDBRANCH   1   7
BRANCH   4  14
ATOM     14  C   UNL     1     -14.472   2.450 -16.289  0.00  0.00    +0.042 C 
BRANCH  14  15
ATOM     15  C   UNL     1     -13.064   2.607 -16.615  0.00  0.00    +0.079 C 
BRANCH  15  16
ATOM     16  C   UNL     1     -12.281   1.634 -17.151  0.00  0.00    +0.139 C 
ATOM     17  O   UNL     1     -12.277   1.181 -18.342  0.00  0.00    -0.297 OA
BRANCH  16  18
ATOM     18  C   UNL     1     -11.177   1.049 -16.321  0.00  0.00    +0.021 C 
ATOM     19  C   UNL     1     -10.791   2.425 -15.865  0.00  0.00    +0.018 C 
ATOM     20  C   UNL     1     -11.562  -0.327 -16.777  0.00  0.00    +0.018 C 
ATOM     21  C   UNL     1     -10.073   0.465 -15.490  0.00  0.00    +0.018 C 
ENDBRANCH  16  18
ENDBRANCH  15  16
ENDBRANCH  14  15
ENDBRANCH   4  14
TORSDOF 6
ENDMDL
MODEL 7
REMARK VINA RESULT:      -7.4      4.553      5.731
REMARK  Name = min_compound985.pdb
REMARK  9 active torsions:
REMARK  status: ('A' for Active; 'I' for Inactive)
REMARK    1  A    between atoms: _1  and  _7
REMARK    2  A    between atoms: _4  and  _14
REMARK    3  A    between atoms: _7  and  _8
REMARK    4  A    between atoms: _14  and  _15
REMARK    5  A    between atoms: _15  and  _16
REMARK    6  A    between atoms: _16  and  _18
REMARK    7  A    between atoms: _18  and  _19
REMARK    8  A    between atoms: _18  and  _20
REMARK    9  A    between atoms: _18  and  _21
REMARK                            x       y       z     vdW  Elec       q    Type
REMARK                         _______ _______ _______ _____ _____    ______ ____
ROOT
ATOM      1  C   UNL     1     -11.690   3.595 -15.881  0.00  0.00    +0.128 A 
ATOM      2  C   UNL     1     -10.927   4.519 -16.592  0.00  0.00    +0.046 A 
ATOM      3  C   UNL     1     -11.548   5.550 -17.304  0.00  0.00    +0.007 A 
ATOM      4  C   UNL     1     -12.943   5.667 -17.335  0.00  0.00    -0.047 A 
ATOM      5  C   UNL     1     -13.703   4.738 -16.609  0.00  0.00    +0.007 A 
ATOM      6  C   UNL     1     -13.083   3.697 -15.898  0.00  0.00    +0.046 A 
ENDROOT
BRANCH   1   7
ATOM      7  O   UNL     1     -10.989   2.576 -15.279  0.00  0.00    -0.456 OA
BRANCH   7   8
ATOM      8  C   UNL     1     -10.677   1.446 -15.995  0.00  0.00    +0.128 A 
ATOM      9  C   UNL     1      -9.995   0.443 -15.304  0.00  0.00    +0.046 A 
ATOM     10  C   UNL     1      -9.697  -0.766 -15.934  0.00  0.00    +0.004 A 
ATOM     11  C   UNL     1     -10.096  -0.976 -17.255  0.00  0.00    +0.000 A 
ATOM     12  C   UNL     1     -10.799   0.016 -17.939  0.00  0.00    +0.004 A 
ATOM     13  C   UNL     1     -11.103   1.225 -17.306  0.00  0.00    +0.046 A 
ENDBRANCH   7   8
ENDBRANCH   1   7
BRANCH   4  14
ATOM     14  C   UNL     1     -13.610   6.742 -18.094  0.00  0.00    +0.042 C 
BRANCH  14  15
ATOM     15  C   UNL     1     -14.272   7.914 -17.544  0.00  0.00    +0.079 C 
BRANCH  15  16
ATOM     16  C   UNL     1     -15.493   7.903 -16.946  0.00  0.00    +0.139 C 
ATOM     17  O   UNL     1     -16.395   7.004 -16.995  0.00  0.00    -0.297 OA
BRANCH  16  18
ATOM     18  C   UNL     1     -15.848   9.010 -15.998  0.00  0.00    +0.021 C 
ATOM     19  C   UNL     1     -15.398   8.165 -14.843  0.00  0.00    +0.018 C 
ATOM     20  C   UNL     1     -16.299   9.854 -17.153  0.00  0.00    +0.018 C 
ATOM     21  C   UNL     1     -16.204  10.116 -15.050  0.00  0.00    +0.018 C 
ENDBRANCH  16  18
ENDBRANCH  15  16
ENDBRANCH  14  15
ENDBRANCH   4  14
TORSDOF 6
ENDMDL
MODEL 8
REMARK VINA RESULT:      -7.1      2.235      3.090
REMARK  Name = min_compound985.pdb
REMARK  9 active torsions:
REMARK  status: ('A' for Active; 'I' for Inactive)
REMARK    1  A    between atoms: _1  and  _7
REMARK    2  A    between atoms: _4  and  _14
REMARK    3  A    between atoms: _7  and  _8
REMARK    4  A    between atoms: _14  and  _15
REMARK    5  A    between atoms: _15  and  _16
REMARK    6  A    between atoms: _16  and  _18
REMARK    7  A    between atoms: _18  and  _19
REMARK    8  A    between atoms: _18  and  _20
REMARK    9  A    between atoms: _18  and  _21
REMARK                            x       y       z     vdW  Elec       q    Type
REMARK                         _______ _______ _______ _____ _____    ______ ____
ROOT
ATOM      1  C   UNL     1     -14.168   3.044 -15.678  0.00  0.00    +0.128 A 
ATOM      2  C   UNL     1     -15.239   2.162 -15.806  0.00  0.00    +0.046 A 
ATOM      3  C   UNL     1     -16.291   2.190 -14.885  0.00  0.00    +0.007 A 
ATOM      4  C   UNL     1     -16.285   3.085 -13.809  0.00  0.00    -0.047 A 
ATOM      5  C   UNL     1     -15.207   3.975 -13.693  0.00  0.00    +0.007 A 
ATOM      6  C   UNL     1     -14.145   3.946 -14.612  0.00  0.00    +0.046 A 
ENDROOT
BRANCH   1   7
ATOM      7  O   UNL     1     -13.149   2.884 -16.588  0.00  0.00    -0.456 OA
BRANCH   7   8
ATOM      8  C   UNL     1     -12.206   1.905 -16.392  0.00  0.00    +0.128 A 
ATOM      9  C   UNL     1     -12.326   0.762 -17.185  0.00  0.00    +0.046 A 
ATOM     10  C   UNL     1     -11.374  -0.254 -17.100  0.00  0.00    +0.004 A 
ATOM     11  C   UNL     1     -10.292  -0.121 -16.229  0.00  0.00    +0.000 A 
ATOM     12  C   UNL     1     -10.158   1.032 -15.453  0.00  0.00    +0.004 A 
ATOM     13  C   UNL     1     -11.109   2.053 -15.542  0.00  0.00    +0.046 A 
ENDBRANCH   7   8
ENDBRANCH   1   7
BRANCH   4  14
ATOM     14  C   UNL     1     -17.382   3.114 -12.823  0.00  0.00    +0.042 C 
BRANCH  14  15
ATOM     15  C   UNL     1     -18.156   4.276 -12.415  0.00  0.00    +0.079 C 
BRANCH  15  16
ATOM     16  C   UNL     1     -18.655   5.211 -13.266  0.00  0.00    +0.139 C 
ATOM     17  O   UNL     1     -19.808   5.259 -13.808  0.00  0.00    -0.297 OA
BRANCH  16  18
ATOM     18  C   UNL     1     -17.840   6.434 -13.563  0.00  0.00    +0.021 C 
ATOM     19  C   UNL     1     -17.712   6.705 -12.093  0.00  0.00    +0.018 C 
ATOM     20  C   UNL     1     -17.967   6.163 -15.033  0.00  0.00    +0.018 C 
ATOM     21  C   UNL     1     -17.024   7.657 -13.859  0.00  0.00    +0.018 C 
ENDBRANCH  16  18
ENDBRANCH  15  16
ENDBRANCH  14  15
ENDBRANCH   4  14
TORSDOF 6
ENDMDL
MODEL 9
REMARK VINA RESULT:      -6.9      7.335     11.428
REMARK  Name = min_compound985.pdb
REMARK  9 active torsions:
REMARK  status: ('A' for Active; 'I' for Inactive)
REMARK    1  A    between atoms: _1  and  _7
REMARK    2  A    between atoms: _4  and  _14
REMARK    3  A    between atoms: _7  and  _8
REMARK    4  A    between atoms: _14  and  _15
REMARK    5  A    between atoms: _15  and  _16
REMARK    6  A    between atoms: _16  and  _18
REMARK    7  A    between atoms: _18  and  _19
REMARK    8  A    between atoms: _18  and  _20
REMARK    9  A    between atoms: _18  and  _21
REMARK                            x       y       z     vdW  Elec       q    Type
REMARK                         _______ _______ _______ _____ _____    ______ ____
ROOT
ATOM      1  C   UNL     1     -14.500  -1.399  -2.933  0.00  0.00    +0.128 A 
ATOM      2  C   UNL     1     -14.128  -0.066  -2.774  0.00  0.00    +0.046 A 
ATOM      3  C   UNL     1     -13.960   0.758  -3.892  0.00  0.00    +0.007 A 
ATOM      4  C   UNL     1     -14.141   0.261  -5.188  0.00  0.00    -0.047 A 
ATOM      5  C   UNL     1     -14.525  -1.080  -5.337  0.00  0.00    +0.007 A 
ATOM      6  C   UNL     1     -14.689  -1.912  -4.218  0.00  0.00    +0.046 A 
ENDROOT
BRANCH   1   7
ATOM      7  O   UNL     1     -14.564  -2.144  -1.778  0.00  0.00    -0.456 OA
BRANCH   7   8
ATOM      8  C   UNL     1     -14.613  -3.515  -1.852  0.00  0.00    +0.128 A 
ATOM      9  C   UNL     1     -13.407  -4.189  -1.647  0.00  0.00    +0.046 A 
ATOM     10  C   UNL     1     -13.377  -5.584  -1.638  0.00  0.00    +0.004 A 
ATOM     11  C   UNL     1     -14.557  -6.306  -1.821  0.00  0.00    +0.000 A 
ATOM     12  C   UNL     1     -15.767  -5.632  -2.001  0.00  0.00    +0.004 A 
ATOM     13  C   UNL     1     -15.799  -4.235  -2.005  0.00  0.00    +0.046 A 
ENDBRANCH   7   8
ENDBRANCH   1   7
BRANCH   4  14
ATOM     14  C   UNL     1     -13.953   1.117  -6.375  0.00  0.00    +0.042 C 
BRANCH  14  15
ATOM     15  C   UNL     1     -14.825   1.200  -7.536  0.00  0.00    +0.079 C 
BRANCH  15  16
ATOM     16  C   UNL     1     -16.124   1.599  -7.501  0.00  0.00    +0.139 C 
ATOM     17  O   UNL     1     -16.627   2.706  -7.879  0.00  0.00    -0.297 OA
BRANCH  16  18
ATOM     18  C   UNL     1     -17.175   0.615  -7.080  0.00  0.00    +0.021 C 
ATOM     19  C   UNL     1     -16.758  -0.306  -8.189  0.00  0.00    +0.018 C 
ATOM     20  C   UNL     1     -17.592   1.535  -5.972  0.00  0.00    +0.018 C 
ATOM     21  C   UNL     1     -18.226  -0.369  -6.659  0.00  0.00    +0.018 C 
ENDBRANCH  16  18
ENDBRANCH  15  16
ENDBRANCH  14  15
ENDBRANCH   4  14
TORSDOF 6
ENDMDL
