MODEL 1
REMARK VINA RESULT:      -6.3      0.000      0.000
REMARK  Name = min_compound940.pdb
REMARK  6 active torsions:
REMARK  status: ('A' for Active; 'I' for Inactive)
REMARK    1  A    between atoms: _3  and  _17
REMARK    2  A    between atoms: _5  and  _16
REMARK    3  A    between atoms: _8  and  _18
REMARK    4  A    between atoms: _10  and  _19
REMARK    5  A    between atoms: _11  and  _12
REMARK    6  A    between atoms: _15  and  _16
REMARK                            x       y       z     vdW  Elec       q    Type
REMARK                         _______ _______ _______ _____ _____    ______ ____
ROOT
ATOM      1  N   UNL     1     -12.891   7.674 -18.111  0.00  0.00    -0.251 NA
ATOM      2  C   UNL     1     -11.953   6.848 -18.496  0.00  0.00    +0.183 C 
ATOM      3  N   UNL     1     -11.808   5.529 -18.270  0.00  0.00    -0.290 N 
ATOM      4  H   UNL     1     -11.055   4.997 -18.616  0.00  0.00    +0.154 HD
ATOM      5  C   UNL     1     -12.802   5.008 -17.516  0.00  0.00    +0.131 A 
ATOM      6  N   UNL     1     -12.999   3.750 -17.014  0.00  0.00    -0.309 N 
ATOM      7  C   UNL     1     -14.141   3.819 -16.255  0.00  0.00    +0.201 A 
ATOM      8  N   UNL     1     -14.683   5.027 -16.248  0.00  0.00    -0.235 NA
ATOM      9  C   UNL     1     -13.856   5.752 -17.060  0.00  0.00    +0.120 A 
ATOM     10  C   UNL     1     -13.917   7.129 -17.382  0.00  0.00    +0.224 C 
ENDROOT
BRANCH   6  11
ATOM     11  C   UNL     1     -12.066   2.657 -17.165  0.00  0.00    +0.144 C 
ATOM     12  C   UNL     1     -10.746   2.619 -16.363  0.00  0.00    +0.174 C 
ATOM     13  C   UNL     1     -10.356   1.117 -16.423  0.00  0.00    +0.173 C 
ATOM     14  C   UNL     1     -11.693   0.431 -16.471  0.00  0.00    -0.016 C 
ATOM     15  C   UNL     1     -12.648   1.299 -16.844  0.00  0.00    +0.004 C 
BRANCH  12  16
ATOM     16  O   UNL     1     -10.873   3.003 -14.980  0.00  0.00    -0.387 OA
ATOM     17  H   UNL     1     -10.498   3.907 -14.940  0.00  0.00    +0.210 HD
ENDBRANCH  12  16
BRANCH  13  18
ATOM     18  O   UNL     1      -9.605   0.777 -15.259  0.00  0.00    -0.385 OA
ATOM     19  H   UNL     1      -9.934  -0.105 -14.977  0.00  0.00    +0.210 HD
ENDBRANCH  13  18
BRANCH  14  20
ATOM     20  C   UNL     1     -11.874  -1.022 -16.239  0.00  0.00    +0.189 C 
BRANCH  20  21
ATOM     21  O   UNL     1     -13.263  -1.290 -16.079  0.00  0.00    -0.391 OA
ATOM     22  H   UNL     1     -13.638  -0.500 -15.652  0.00  0.00    +0.210 HD
ENDBRANCH  20  21
ENDBRANCH  14  20
ENDBRANCH   6  11
BRANCH  10  23
ATOM     23  N   UNL     1     -14.804   8.034 -16.744  0.00  0.00    -0.304 NA
ATOM     24  H   UNL     1     -14.273   8.509 -16.029  0.00  0.00    +0.121 HD
ATOM     25  H   UNL     1     -15.585   7.499 -16.382  0.00  0.00    +0.121 HD
ENDBRANCH  10  23
TORSDOF 6
ENDMDL
MODEL 2
REMARK VINA RESULT:      -5.8      1.538      2.028
REMARK  Name = min_compound940.pdb
REMARK  6 active torsions:
REMARK  status: ('A' for Active; 'I' for Inactive)
REMARK    1  A    between atoms: _3  and  _17
REMARK    2  A    between atoms: _5  and  _16
REMARK    3  A    between atoms: _8  and  _18
REMARK    4  A    between atoms: _10  and  _19
REMARK    5  A    between atoms: _11  and  _12
REMARK    6  A    between atoms: _15  and  _16
REMARK                            x       y       z     vdW  Elec       q    Type
REMARK                         _______ _______ _______ _____ _____    ______ ____
ROOT
ATOM      1  N   UNL     1     -12.599   7.486 -18.101  0.00  0.00    -0.251 NA
ATOM      2  C   UNL     1     -11.895   6.385 -18.146  0.00  0.00    +0.183 C 
ATOM      3  N   UNL     1     -12.211   5.134 -17.759  0.00  0.00    -0.290 N 
ATOM      4  H   UNL     1     -11.599   4.368 -17.844  0.00  0.00    +0.154 HD
ATOM      5  C   UNL     1     -13.456   5.038 -17.241  0.00  0.00    +0.131 A 
ATOM      6  N   UNL     1     -14.130   3.985 -16.685  0.00  0.00    -0.309 N 
ATOM      7  C   UNL     1     -15.335   4.489 -16.258  0.00  0.00    +0.201 A 
ATOM      8  N   UNL     1     -15.472   5.780 -16.512  0.00  0.00    -0.235 NA
ATOM      9  C   UNL     1     -14.307   6.105 -17.150  0.00  0.00    +0.120 A 
ATOM     10  C   UNL     1     -13.875   7.372 -17.612  0.00  0.00    +0.224 C 
ENDROOT
BRANCH   6  11
ATOM     11  C   UNL     1     -13.564   2.671 -16.479  0.00  0.00    +0.144 C 
ATOM     12  C   UNL     1     -13.300   1.722 -17.668  0.00  0.00    +0.174 C 
ATOM     13  C   UNL     1     -12.261   0.727 -17.083  0.00  0.00    +0.173 C 
ATOM     14  C   UNL     1     -11.506   1.579 -16.101  0.00  0.00    -0.016 C 
ATOM     15  C   UNL     1     -12.214   2.679 -15.798  0.00  0.00    +0.004 C 
BRANCH  12  16
ATOM     16  O   UNL     1     -12.723   2.357 -18.826  0.00  0.00    -0.387 OA
ATOM     17  H   UNL     1     -12.097   1.694 -19.184  0.00  0.00    +0.210 HD
ENDBRANCH  12  16
BRANCH  13  18
ATOM     18  O   UNL     1     -11.433   0.236 -18.136  0.00  0.00    -0.385 OA
ATOM     19  H   UNL     1     -12.040   0.033 -18.882  0.00  0.00    +0.210 HD
ENDBRANCH  13  18
BRANCH  14  20
ATOM     20  C   UNL     1     -10.215   1.176 -15.494  0.00  0.00    +0.189 C 
BRANCH  20  21
ATOM     21  O   UNL     1     -10.060  -0.232 -15.641  0.00  0.00    -0.391 OA
ATOM     22  H   UNL     1     -10.662  -0.491 -16.360  0.00  0.00    +0.210 HD
ENDBRANCH  20  21
ENDBRANCH  14  20
ENDBRANCH   6  11
BRANCH  10  23
ATOM     23  N   UNL     1     -14.562   8.577 -17.319  0.00  0.00    -0.304 NA
ATOM     24  H   UNL     1     -13.859   9.280 -17.145  0.00  0.00    +0.121 HD
ATOM     25  H   UNL     1     -15.169   8.403 -16.526  0.00  0.00    +0.121 HD
ENDBRANCH  10  23
TORSDOF 6
ENDMDL
MODEL 3
REMARK VINA RESULT:      -5.8      1.573      2.793
REMARK  Name = min_compound940.pdb
REMARK  6 active torsions:
REMARK  status: ('A' for Active; 'I' for Inactive)
REMARK    1  A    between atoms: _3  and  _17
REMARK    2  A    between atoms: _5  and  _16
REMARK    3  A    between atoms: _8  and  _18
REMARK    4  A    between atoms: _10  and  _19
REMARK    5  A    between atoms: _11  and  _12
REMARK    6  A    between atoms: _15  and  _16
REMARK                            x       y       z     vdW  Elec       q    Type
REMARK                         _______ _______ _______ _____ _____    ______ ____
ROOT
ATOM      1  N   UNL     1     -15.979   6.998 -16.397  0.00  0.00    -0.251 NA
ATOM      2  C   UNL     1     -16.092   5.792 -15.902  0.00  0.00    +0.183 C 
ATOM      3  N   UNL     1     -15.196   4.788 -15.843  0.00  0.00    -0.290 N 
ATOM      4  H   UNL     1     -15.388   3.912 -15.438  0.00  0.00    +0.154 HD
ATOM      5  C   UNL     1     -14.005   5.108 -16.399  0.00  0.00    +0.131 A 
ATOM      6  N   UNL     1     -12.870   4.371 -16.600  0.00  0.00    -0.309 N 
ATOM      7  C   UNL     1     -12.002   5.190 -17.281  0.00  0.00    +0.201 A 
ATOM      8  N   UNL     1     -12.505   6.391 -17.516  0.00  0.00    -0.235 NA
ATOM      9  C   UNL     1     -13.743   6.337 -16.938  0.00  0.00    +0.120 A 
ATOM     10  C   UNL     1     -14.756   7.327 -16.922  0.00  0.00    +0.224 C 
ENDROOT
BRANCH   6  11
ATOM     11  C   UNL     1     -12.738   2.969 -16.274  0.00  0.00    +0.144 C 
ATOM     12  C   UNL     1     -13.037   1.876 -17.323  0.00  0.00    +0.174 C 
ATOM     13  C   UNL     1     -12.290   0.641 -16.750  0.00  0.00    +0.173 C 
ATOM     14  C   UNL     1     -11.121   1.265 -16.039  0.00  0.00    -0.016 C 
ATOM     15  C   UNL     1     -11.356   2.568 -15.812  0.00  0.00    +0.004 C 
BRANCH  12  16
ATOM     16  O   UNL     1     -12.521   2.151 -18.641  0.00  0.00    -0.387 OA
ATOM     17  H   UNL     1     -12.683   3.108 -18.774  0.00  0.00    +0.210 HD
ENDBRANCH  12  16
BRANCH  13  18
ATOM     18  O   UNL     1     -11.890  -0.210 -17.822  0.00  0.00    -0.385 OA
ATOM     19  H   UNL     1     -11.298   0.334 -18.389  0.00  0.00    +0.210 HD
ENDBRANCH  13  18
BRANCH  14  20
ATOM     20  C   UNL     1      -9.942   0.496 -15.575  0.00  0.00    +0.189 C 
BRANCH  20  21
ATOM     21  O   UNL     1      -9.335  -0.134 -16.698  0.00  0.00    -0.391 OA
ATOM     22  H   UNL     1      -9.949   0.001 -17.441  0.00  0.00    +0.210 HD
ENDBRANCH  20  21
ENDBRANCH  14  20
ENDBRANCH   6  11
BRANCH  10  23
ATOM     23  N   UNL     1     -14.682   8.521 -17.683  0.00  0.00    -0.304 NA
ATOM     24  H   UNL     1     -13.923   8.404 -18.338  0.00  0.00    +0.121 HD
ATOM     25  H   UNL     1     -14.548   9.291 -17.039  0.00  0.00    +0.121 HD
ENDBRANCH  10  23
TORSDOF 6
ENDMDL
MODEL 4
REMARK VINA RESULT:      -5.7     14.315     16.131
REMARK  Name = min_compound940.pdb
REMARK  6 active torsions:
REMARK  status: ('A' for Active; 'I' for Inactive)
REMARK    1  A    between atoms: _3  and  _17
REMARK    2  A    between atoms: _5  and  _16
REMARK    3  A    between atoms: _8  and  _18
REMARK    4  A    between atoms: _10  and  _19
REMARK    5  A    between atoms: _11  and  _12
REMARK    6  A    between atoms: _15  and  _16
REMARK                            x       y       z     vdW  Elec       q    Type
REMARK                         _______ _______ _______ _____ _____    ______ ____
ROOT
ATOM      1  N   UNL     1     -14.871  -6.255  -1.524  0.00  0.00    -0.251 NA
ATOM      2  C   UNL     1     -13.838  -5.584  -1.964  0.00  0.00    +0.183 C 
ATOM      3  N   UNL     1     -13.758  -4.330  -2.450  0.00  0.00    -0.290 N 
ATOM      4  H   UNL     1     -12.916  -3.918  -2.752  0.00  0.00    +0.154 HD
ATOM      5  C   UNL     1     -14.951  -3.697  -2.481  0.00  0.00    +0.131 A 
ATOM      6  N   UNL     1     -15.313  -2.462  -2.950  0.00  0.00    -0.309 N 
ATOM      7  C   UNL     1     -16.675  -2.381  -2.792  0.00  0.00    +0.201 A 
ATOM      8  N   UNL     1     -17.197  -3.471  -2.251  0.00  0.00    -0.235 NA
ATOM      9  C   UNL     1     -16.110  -4.272  -2.036  0.00  0.00    +0.120 A 
ATOM     10  C   UNL     1     -16.071  -5.590  -1.521  0.00  0.00    +0.224 C 
ENDROOT
BRANCH   6  11
ATOM     11  C   UNL     1     -14.413  -1.544  -3.609  0.00  0.00    +0.144 C 
ATOM     12  C   UNL     1     -14.583  -1.197  -5.104  0.00  0.00    +0.174 C 
ATOM     13  C   UNL     1     -13.801   0.139  -5.233  0.00  0.00    +0.173 C 
ATOM     14  C   UNL     1     -13.989   0.763  -3.878  0.00  0.00    -0.016 C 
ATOM     15  C   UNL     1     -14.368  -0.167  -2.987  0.00  0.00    +0.004 C 
BRANCH  12  16
ATOM     16  O   UNL     1     -15.945  -0.970  -5.516  0.00  0.00    -0.387 OA
ATOM     17  H   UNL     1     -15.869  -0.432  -6.331  0.00  0.00    +0.210 HD
ENDBRANCH  12  16
BRANCH  13  18
ATOM     18  O   UNL     1     -14.370   0.921  -6.282  0.00  0.00    -0.385 OA
ATOM     19  H   UNL     1     -13.629   1.126  -6.895  0.00  0.00    +0.210 HD
ENDBRANCH  13  18
BRANCH  14  20
ATOM     20  C   UNL     1     -13.684   2.183  -3.584  0.00  0.00    +0.189 C 
BRANCH  20  21
ATOM     21  O   UNL     1     -14.809   2.977  -3.946  0.00  0.00    -0.391 OA
ATOM     22  H   UNL     1     -14.467   3.880  -4.073  0.00  0.00    +0.210 HD
ENDBRANCH  20  21
ENDBRANCH  14  20
ENDBRANCH   6  11
BRANCH  10  23
ATOM     23  N   UNL     1     -17.235  -6.366  -1.292  0.00  0.00    -0.304 NA
ATOM     24  H   UNL     1     -17.976  -5.720  -1.062  0.00  0.00    +0.121 HD
ATOM     25  H   UNL     1     -17.027  -7.026  -0.552  0.00  0.00    +0.121 HD
ENDBRANCH  10  23
TORSDOF 6
ENDMDL
MODEL 5
REMARK VINA RESULT:      -5.6      9.705     10.565
REMARK  Name = min_compound940.pdb
REMARK  6 active torsions:
REMARK  status: ('A' for Active; 'I' for Inactive)
REMARK    1  A    between atoms: _3  and  _17
REMARK    2  A    between atoms: _5  and  _16
REMARK    3  A    between atoms: _8  and  _18
REMARK    4  A    between atoms: _10  and  _19
REMARK    5  A    between atoms: _11  and  _12
REMARK    6  A    between atoms: _15  and  _16
REMARK                            x       y       z     vdW  Elec       q    Type
REMARK                         _______ _______ _______ _____ _____    ______ ____
ROOT
ATOM      1  N   UNL     1     -16.288   5.006 -10.181  0.00  0.00    -0.251 NA
ATOM      2  C   UNL     1     -15.975   3.737 -10.253  0.00  0.00    +0.183 C 
ATOM      3  N   UNL     1     -16.150   2.746  -9.358  0.00  0.00    -0.290 N 
ATOM      4  H   UNL     1     -15.878   1.814  -9.521  0.00  0.00    +0.154 HD
ATOM      5  C   UNL     1     -16.736   3.163  -8.214  0.00  0.00    +0.131 A 
ATOM      6  N   UNL     1     -17.030   2.503  -7.051  0.00  0.00    -0.309 N 
ATOM      7  C   UNL     1     -17.552   3.447  -6.201  0.00  0.00    +0.201 A 
ATOM      8  N   UNL     1     -17.616   4.652  -6.746  0.00  0.00    -0.235 NA
ATOM      9  C   UNL     1     -17.131   4.456  -8.009  0.00  0.00    +0.120 A 
ATOM     10  C   UNL     1     -16.919   5.411  -9.033  0.00  0.00    +0.224 C 
ENDROOT
BRANCH   6  11
ATOM     11  C   UNL     1     -16.686   1.124  -6.786  0.00  0.00    +0.144 C 
ATOM     12  C   UNL     1     -15.353   0.526  -7.283  0.00  0.00    +0.174 C 
ATOM     13  C   UNL     1     -15.176  -0.717  -6.367  0.00  0.00    +0.173 C 
ATOM     14  C   UNL     1     -15.836  -0.280  -5.089  0.00  0.00    -0.016 C 
ATOM     15  C   UNL     1     -16.643   0.769  -5.317  0.00  0.00    +0.004 C 
BRANCH  12  16
ATOM     16  O   UNL     1     -14.208   1.385  -7.111  0.00  0.00    -0.387 OA
ATOM     17  H   UNL     1     -14.140   1.876  -7.956  0.00  0.00    +0.210 HD
ENDBRANCH  12  16
BRANCH  13  18
ATOM     18  O   UNL     1     -13.786  -0.989  -6.203  0.00  0.00    -0.385 OA
ATOM     19  H   UNL     1     -13.324  -0.430  -6.866  0.00  0.00    +0.210 HD
ENDBRANCH  13  18
BRANCH  14  20
ATOM     20  C   UNL     1     -15.678  -0.997  -3.802  0.00  0.00    +0.189 C 
BRANCH  20  21
ATOM     21  O   UNL     1     -15.090  -2.269  -4.056  0.00  0.00    -0.391 OA
ATOM     22  H   UNL     1     -14.254  -2.278  -3.559  0.00  0.00    +0.210 HD
ENDBRANCH  20  21
ENDBRANCH  14  20
ENDBRANCH   6  11
BRANCH  10  23
ATOM     23  N   UNL     1     -17.039   6.809  -8.824  0.00  0.00    -0.304 NA
ATOM     24  H   UNL     1     -16.123   7.206  -8.973  0.00  0.00    +0.121 HD
ATOM     25  H   UNL     1     -17.396   6.952  -7.886  0.00  0.00    +0.121 HD
ENDBRANCH  10  23
TORSDOF 6
ENDMDL
MODEL 6
REMARK VINA RESULT:      -5.6      3.178      5.825
REMARK  Name = min_compound940.pdb
REMARK  6 active torsions:
REMARK  status: ('A' for Active; 'I' for Inactive)
REMARK    1  A    between atoms: _3  and  _17
REMARK    2  A    between atoms: _5  and  _16
REMARK    3  A    between atoms: _8  and  _18
REMARK    4  A    between atoms: _10  and  _19
REMARK    5  A    between atoms: _11  and  _12
REMARK    6  A    between atoms: _15  and  _16
REMARK                            x       y       z     vdW  Elec       q    Type
REMARK                         _______ _______ _______ _____ _____    ______ ____
ROOT
ATOM      1  N   UNL     1     -11.218  -0.466 -16.955  0.00  0.00    -0.251 NA
ATOM      2  C   UNL     1     -12.421  -0.091 -16.605  0.00  0.00    +0.183 C 
ATOM      3  N   UNL     1     -12.947   1.143 -16.480  0.00  0.00    -0.290 N 
ATOM      4  H   UNL     1     -13.878   1.312 -16.212  0.00  0.00    +0.154 HD
ATOM      5  C   UNL     1     -12.062   2.126 -16.762  0.00  0.00    +0.131 A 
ATOM      6  N   UNL     1     -12.169   3.489 -16.699  0.00  0.00    -0.309 N 
ATOM      7  C   UNL     1     -10.929   3.981 -17.026  0.00  0.00    +0.201 A 
ATOM      8  N   UNL     1     -10.052   3.028 -17.299  0.00  0.00    -0.235 NA
ATOM      9  C   UNL     1     -10.777   1.878 -17.158  0.00  0.00    +0.120 A 
ATOM     10  C   UNL     1     -10.340   0.536 -17.278  0.00  0.00    +0.224 C 
ENDROOT
BRANCH   6  11
ATOM     11  C   UNL     1     -13.337   4.195 -16.224  0.00  0.00    +0.144 C 
ATOM     12  C   UNL     1     -14.629   4.255 -17.066  0.00  0.00    +0.174 C 
ATOM     13  C   UNL     1     -15.708   4.614 -16.007  0.00  0.00    +0.173 C 
ATOM     14  C   UNL     1     -15.175   3.962 -14.761  0.00  0.00    -0.016 C 
ATOM     15  C   UNL     1     -13.866   3.693 -14.900  0.00  0.00    +0.004 C 
BRANCH  12  16
ATOM     16  O   UNL     1     -14.998   3.009 -17.689  0.00  0.00    -0.387 OA
ATOM     17  H   UNL     1     -14.953   2.349 -16.966  0.00  0.00    +0.210 HD
ENDBRANCH  12  16
BRANCH  13  18
ATOM     18  O   UNL     1     -16.966   4.077 -16.413  0.00  0.00    -0.385 OA
ATOM     19  H   UNL     1     -16.763   3.429 -17.124  0.00  0.00    +0.210 HD
ENDBRANCH  13  18
BRANCH  14  20
ATOM     20  C   UNL     1     -15.984   3.760 -13.535  0.00  0.00    +0.189 C 
BRANCH  20  21
ATOM     21  O   UNL     1     -16.802   2.608 -13.711  0.00  0.00    -0.391 OA
ATOM     22  H   UNL     1     -16.511   1.971 -13.035  0.00  0.00    +0.210 HD
ENDBRANCH  20  21
ENDBRANCH  14  20
ENDBRANCH   6  11
BRANCH  10  23
ATOM     23  N   UNL     1      -8.975   0.177 -17.414  0.00  0.00    -0.304 NA
ATOM     24  H   UNL     1      -8.600   0.093 -16.480  0.00  0.00    +0.121 HD
ATOM     25  H   UNL     1      -8.520   0.891 -17.971  0.00  0.00    +0.121 HD
ENDBRANCH  10  23
TORSDOF 6
ENDMDL
MODEL 7
REMARK VINA RESULT:      -5.6      2.650      3.250
REMARK  Name = min_compound940.pdb
REMARK  6 active torsions:
REMARK  status: ('A' for Active; 'I' for Inactive)
REMARK    1  A    between atoms: _3  and  _17
REMARK    2  A    between atoms: _5  and  _16
REMARK    3  A    between atoms: _8  and  _18
REMARK    4  A    between atoms: _10  and  _19
REMARK    5  A    between atoms: _11  and  _12
REMARK    6  A    between atoms: _15  and  _16
REMARK                            x       y       z     vdW  Elec       q    Type
REMARK                         _______ _______ _______ _____ _____    ______ ____
ROOT
ATOM      1  N   UNL     1     -16.840   3.444 -16.517  0.00  0.00    -0.251 NA
ATOM      2  C   UNL     1     -15.828   2.914 -15.880  0.00  0.00    +0.183 C 
ATOM      3  N   UNL     1     -14.576   2.652 -16.302  0.00  0.00    -0.290 N 
ATOM      4  H   UNL     1     -13.883   2.250 -15.730  0.00  0.00    +0.154 HD
ATOM      5  C   UNL     1     -14.369   2.997 -17.592  0.00  0.00    +0.131 A 
ATOM      6  N   UNL     1     -13.281   2.846 -18.409  0.00  0.00    -0.309 N 
ATOM      7  C   UNL     1     -13.666   3.311 -19.644  0.00  0.00    +0.201 A 
ATOM      8  N   UNL     1     -14.914   3.752 -19.661  0.00  0.00    -0.235 NA
ATOM      9  C   UNL     1     -15.332   3.577 -18.371  0.00  0.00    +0.120 A 
ATOM     10  C   UNL     1     -16.609   3.829 -17.813  0.00  0.00    +0.224 C 
ENDROOT
BRANCH   6  11
ATOM     11  C   UNL     1     -12.058   2.178 -18.026  0.00  0.00    +0.144 C 
ATOM     12  C   UNL     1     -11.152   2.751 -16.914  0.00  0.00    +0.174 C 
ATOM     13  C   UNL     1     -10.311   1.516 -16.491  0.00  0.00    +0.173 C 
ATOM     14  C   UNL     1     -11.261   0.375 -16.727  0.00  0.00    -0.016 C 
ATOM     15  C   UNL     1     -12.253   0.757 -17.548  0.00  0.00    +0.004 C 
BRANCH  12  16
ATOM     16  O   UNL     1     -11.859   3.240 -15.757  0.00  0.00    -0.387 OA
ATOM     17  H   UNL     1     -12.502   3.885 -16.116  0.00  0.00    +0.210 HD
ENDBRANCH  12  16
BRANCH  13  18
ATOM     18  O   UNL     1      -9.937   1.645 -15.121  0.00  0.00    -0.385 OA
ATOM     19  H   UNL     1     -10.765   1.866 -14.638  0.00  0.00    +0.210 HD
ENDBRANCH  13  18
BRANCH  14  20
ATOM     20  C   UNL     1     -11.041  -0.993 -16.200  0.00  0.00    +0.189 C 
BRANCH  20  21
ATOM     21  O   UNL     1      -9.684  -1.111 -15.787  0.00  0.00    -0.391 OA
ATOM     22  H   UNL     1      -9.408  -2.011 -16.038  0.00  0.00    +0.210 HD
ENDBRANCH  20  21
ENDBRANCH  14  20
ENDBRANCH   6  11
BRANCH  10  23
ATOM     23  N   UNL     1     -17.742   4.168 -18.595  0.00  0.00    -0.304 NA
ATOM     24  H   UNL     1     -17.396   4.607 -19.435  0.00  0.00    +0.121 HD
ATOM     25  H   UNL     1     -18.335   4.769 -18.036  0.00  0.00    +0.121 HD
ENDBRANCH  10  23
TORSDOF 6
ENDMDL
MODEL 8
REMARK VINA RESULT:      -5.6      1.728      2.269
REMARK  Name = min_compound940.pdb
REMARK  6 active torsions:
REMARK  status: ('A' for Active; 'I' for Inactive)
REMARK    1  A    between atoms: _3  and  _17
REMARK    2  A    between atoms: _5  and  _16
REMARK    3  A    between atoms: _8  and  _18
REMARK    4  A    between atoms: _10  and  _19
REMARK    5  A    between atoms: _11  and  _12
REMARK    6  A    between atoms: _15  and  _16
REMARK                            x       y       z     vdW  Elec       q    Type
REMARK                         _______ _______ _______ _____ _____    ______ ____
ROOT
ATOM      1  N   UNL     1     -15.204   8.485 -16.180  0.00  0.00    -0.251 NA
ATOM      2  C   UNL     1     -14.551   7.903 -17.152  0.00  0.00    +0.183 C 
ATOM      3  N   UNL     1     -14.176   6.618 -17.302  0.00  0.00    -0.290 N 
ATOM      4  H   UNL     1     -13.686   6.284 -18.088  0.00  0.00    +0.154 HD
ATOM      5  C   UNL     1     -14.543   5.835 -16.263  0.00  0.00    +0.131 A 
ATOM      6  N   UNL     1     -14.308   4.514 -15.995  0.00  0.00    -0.309 N 
ATOM      7  C   UNL     1     -14.853   4.276 -14.756  0.00  0.00    +0.201 A 
ATOM      8  N   UNL     1     -15.420   5.349 -14.229  0.00  0.00    -0.235 NA
ATOM      9  C   UNL     1     -15.245   6.307 -15.188  0.00  0.00    +0.120 A 
ATOM     10  C   UNL     1     -15.607   7.675 -15.149  0.00  0.00    +0.224 C 
ENDROOT
BRANCH   6  11
ATOM     11  C   UNL     1     -13.505   3.643 -16.823  0.00  0.00    +0.144 C 
ATOM     12  C   UNL     1     -11.983   3.860 -16.966  0.00  0.00    +0.174 C 
ATOM     13  C   UNL     1     -11.488   2.474 -17.463  0.00  0.00    +0.173 C 
ATOM     14  C   UNL     1     -12.460   1.526 -16.816  0.00  0.00    -0.016 C 
ATOM     15  C   UNL     1     -13.562   2.185 -16.425  0.00  0.00    +0.004 C 
BRANCH  12  16
ATOM     16  O   UNL     1     -11.303   4.173 -15.734  0.00  0.00    -0.387 OA
ATOM     17  H   UNL     1     -10.810   3.357 -15.511  0.00  0.00    +0.210 HD
ENDBRANCH  12  16
BRANCH  13  18
ATOM     18  O   UNL     1     -10.146   2.268 -17.027  0.00  0.00    -0.385 OA
ATOM     19  H   UNL     1      -9.707   3.145 -17.090  0.00  0.00    +0.210 HD
ENDBRANCH  13  18
BRANCH  14  20
ATOM     20  C   UNL     1     -12.242   0.062 -16.737  0.00  0.00    +0.189 C 
BRANCH  20  21
ATOM     21  O   UNL     1     -11.470  -0.347 -17.861  0.00  0.00    -0.391 OA
ATOM     22  H   UNL     1     -10.606   0.091 -17.763  0.00  0.00    +0.210 HD
ENDBRANCH  20  21
ENDBRANCH  14  20
ENDBRANCH   6  11
BRANCH  10  23
ATOM     23  N   UNL     1     -16.088   8.314 -13.978  0.00  0.00    -0.304 NA
ATOM     24  H   UNL     1     -16.084   7.622 -13.244  0.00  0.00    +0.121 HD
ATOM     25  H   UNL     1     -17.008   8.685 -14.183  0.00  0.00    +0.121 HD
ENDBRANCH  10  23
TORSDOF 6
ENDMDL
MODEL 9
REMARK VINA RESULT:      -5.5      9.353     10.446
REMARK  Name = min_compound940.pdb
REMARK  6 active torsions:
REMARK  status: ('A' for Active; 'I' for Inactive)
REMARK    1  A    between atoms: _3  and  _17
REMARK    2  A    between atoms: _5  and  _16
REMARK    3  A    between atoms: _8  and  _18
REMARK    4  A    between atoms: _10  and  _19
REMARK    5  A    between atoms: _11  and  _12
REMARK    6  A    between atoms: _15  and  _16
REMARK                            x       y       z     vdW  Elec       q    Type
REMARK                         _______ _______ _______ _____ _____    ______ ____
ROOT
ATOM      1  N   UNL     1     -18.159   6.815  -8.364  0.00  0.00    -0.251 NA
ATOM      2  C   UNL     1     -18.266   6.167  -7.233  0.00  0.00    +0.183 C 
ATOM      3  N   UNL     1     -17.783   4.964  -6.870  0.00  0.00    -0.290 N 
ATOM      4  H   UNL     1     -17.920   4.569  -5.978  0.00  0.00    +0.154 HD
ATOM      5  C   UNL     1     -17.089   4.352  -7.856  0.00  0.00    +0.131 A 
ATOM      6  N   UNL     1     -16.499   3.119  -7.922  0.00  0.00    -0.309 N 
ATOM      7  C   UNL     1     -16.004   3.002  -9.198  0.00  0.00    +0.201 A 
ATOM      8  N   UNL     1     -16.232   4.076  -9.938  0.00  0.00    -0.235 NA
ATOM      9  C   UNL     1     -16.884   4.921  -9.083  0.00  0.00    +0.120 A 
ATOM     10  C   UNL     1     -17.419   6.205  -9.345  0.00  0.00    +0.224 C 
ENDROOT
BRANCH   6  11
ATOM     11  C   UNL     1     -16.561   2.127  -6.872  0.00  0.00    +0.144 C 
ATOM     12  C   UNL     1     -17.600   0.985  -6.914  0.00  0.00    +0.174 C 
ATOM     13  C   UNL     1     -16.985  -0.068  -5.953  0.00  0.00    +0.173 C 
ATOM     14  C   UNL     1     -15.508   0.151  -6.126  0.00  0.00    -0.016 C 
ATOM     15  C   UNL     1     -15.277   1.355  -6.674  0.00  0.00    +0.004 C 
BRANCH  12  16
ATOM     16  O   UNL     1     -17.770   0.377  -8.210  0.00  0.00    -0.387 OA
ATOM     17  H   UNL     1     -17.172   0.882  -8.799  0.00  0.00    +0.210 HD
ENDBRANCH  12  16
BRANCH  13  18
ATOM     18  O   UNL     1     -17.398  -1.373  -6.355  0.00  0.00    -0.385 OA
ATOM     19  H   UNL     1     -18.156  -1.605  -5.773  0.00  0.00    +0.210 HD
ENDBRANCH  13  18
BRANCH  14  20
ATOM     20  C   UNL     1     -14.479  -0.803  -5.647  0.00  0.00    +0.189 C 
BRANCH  20  21
ATOM     21  O   UNL     1     -14.693  -2.062  -6.278  0.00  0.00    -0.391 OA
ATOM     22  H   UNL     1     -15.116  -2.626  -5.607  0.00  0.00    +0.210 HD
ENDBRANCH  20  21
ENDBRANCH  14  20
ENDBRANCH   6  11
BRANCH  10  23
ATOM     23  N   UNL     1     -17.498   6.758 -10.648  0.00  0.00    -0.304 NA
ATOM     24  H   UNL     1     -17.888   6.045 -11.246  0.00  0.00    +0.121 HD
ATOM     25  H   UNL     1     -16.566   7.050 -10.918  0.00  0.00    +0.121 HD
ENDBRANCH  10  23
TORSDOF 6
ENDMDL
