MODEL 1
REMARK VINA RESULT:      -7.5      0.000      0.000
REMARK  Name = min_compound956.pdb
REMARK  6 active torsions:
REMARK  status: ('A' for Active; 'I' for Inactive)
REMARK    1  A    between atoms: _4  and  _21
REMARK    2  A    between atoms: _5  and  _19
REMARK    3  A    between atoms: _7  and  _17
REMARK    4  A    between atoms: _8  and  _18
REMARK    5  A    between atoms: _19  and  _20
REMARK    6  A    between atoms: _21  and  _22
REMARK                            x       y       z     vdW  Elec       q    Type
REMARK                         _______ _______ _______ _____ _____    ______ ____
ROOT
ATOM      1  C   UNL     1     -13.962   2.971 -15.746  0.00  0.00    +0.029 C 
ATOM      2  C   UNL     1     -14.438   3.819 -14.820  0.00  0.00    +0.014 C 
ENDROOT
BRANCH   1  12
ATOM      3  N   UNL     1     -12.064   4.277 -16.363  0.00  0.00    -0.255 NA
ATOM      4  C   UNL     1     -10.790   4.395 -16.775  0.00  0.00    +0.112 A 
ATOM      5  C   UNL     1      -9.981   3.318 -17.087  0.00  0.00    +0.028 A 
ATOM      6  C   UNL     1     -10.505   2.028 -16.979  0.00  0.00    -0.014 A 
ATOM      7  C   UNL     1      -9.715   0.911 -17.306  0.00  0.00    +0.008 A 
ATOM      8  C   UNL     1     -10.230  -0.381 -17.218  0.00  0.00    +0.001 A 
ATOM      9  C   UNL     1     -11.540  -0.576 -16.803  0.00  0.00    +0.001 A 
ATOM     10  C   UNL     1     -12.336   0.523 -16.470  0.00  0.00    +0.010 A 
ATOM     11  C   UNL     1     -11.837   1.849 -16.545  0.00  0.00    +0.008 A 
ATOM     12  C   UNL     1     -12.574   3.022 -16.242  0.00  0.00    +0.072 A 
ENDBRANCH   1  12
BRANCH   2  13
ATOM     13  C   UNL     1     -15.813   3.809 -14.289  0.00  0.00    +0.020 A 
ATOM     14  C   UNL     1     -16.720   2.927 -14.904  0.00  0.00    +0.012 A 
ATOM     15  C   UNL     1     -18.034   2.808 -14.448  0.00  0.00    +0.004 A 
ATOM     16  C   UNL     1     -18.470   3.581 -13.376  0.00  0.00    +0.049 A 
ATOM     17  C   UNL     1     -17.596   4.476 -12.760  0.00  0.00    +0.162 A 
ATOM     18  C   UNL     1     -16.257   4.556 -13.180  0.00  0.00    +0.169 A 
BRANCH  17  19
ATOM     19  O   UNL     1     -18.119   5.185 -11.707  0.00  0.00    -0.491 OA
ATOM     20  C   UNL     1     -18.728   4.344 -10.728  0.00  0.00    +0.277 C 
ENDBRANCH  17  19
BRANCH  18  21
ATOM     21  O   UNL     1     -15.382   5.380 -12.508  0.00  0.00    -0.491 OA
ATOM     22  C   UNL     1     -14.917   4.728 -11.326  0.00  0.00    +0.277 C 
ENDBRANCH  18  21
ENDBRANCH   2  13
TORSDOF 4
ENDMDL
MODEL 2
REMARK VINA RESULT:      -7.1      2.070      2.727
REMARK  Name = min_compound956.pdb
REMARK  6 active torsions:
REMARK  status: ('A' for Active; 'I' for Inactive)
REMARK    1  A    between atoms: _4  and  _21
REMARK    2  A    between atoms: _5  and  _19
REMARK    3  A    between atoms: _7  and  _17
REMARK    4  A    between atoms: _8  and  _18
REMARK    5  A    between atoms: _19  and  _20
REMARK    6  A    between atoms: _21  and  _22
REMARK                            x       y       z     vdW  Elec       q    Type
REMARK                         _______ _______ _______ _____ _____    ______ ____
ROOT
ATOM      1  C   UNL     1     -13.610   3.767 -15.466  0.00  0.00    +0.029 C 
ATOM      2  C   UNL     1     -14.906   3.926 -15.149  0.00  0.00    +0.014 C 
ENDROOT
BRANCH   1  12
ATOM      3  N   UNL     1     -13.911   3.145 -17.748  0.00  0.00    -0.255 NA
ATOM      4  C   UNL     1     -13.533   2.482 -18.856  0.00  0.00    +0.112 A 
ATOM      5  C   UNL     1     -12.438   1.641 -18.912  0.00  0.00    +0.028 A 
ATOM      6  C   UNL     1     -11.673   1.453 -17.758  0.00  0.00    -0.014 A 
ATOM      7  C   UNL     1     -10.563   0.590 -17.775  0.00  0.00    +0.008 A 
ATOM      8  C   UNL     1      -9.801   0.380 -16.627  0.00  0.00    +0.001 A 
ATOM      9  C   UNL     1     -10.136   1.031 -15.447  0.00  0.00    +0.001 A 
ATOM     10  C   UNL     1     -11.233   1.894 -15.415  0.00  0.00    +0.010 A 
ATOM     11  C   UNL     1     -12.024   2.131 -16.569  0.00  0.00    +0.008 A 
ATOM     12  C   UNL     1     -13.160   2.977 -16.627  0.00  0.00    +0.072 A 
ENDBRANCH   1  12
BRANCH   2  13
ATOM     13  C   UNL     1     -15.408   4.707 -14.004  0.00  0.00    +0.020 A 
ATOM     14  C   UNL     1     -15.102   4.215 -12.722  0.00  0.00    +0.012 A 
ATOM     15  C   UNL     1     -15.493   4.903 -11.572  0.00  0.00    +0.004 A 
ATOM     16  C   UNL     1     -16.210   6.090 -11.683  0.00  0.00    +0.049 A 
ATOM     17  C   UNL     1     -16.542   6.590 -12.942  0.00  0.00    +0.162 A 
ATOM     18  C   UNL     1     -16.101   5.930 -14.102  0.00  0.00    +0.169 A 
BRANCH  17  19
ATOM     19  O   UNL     1     -17.243   7.770 -12.944  0.00  0.00    -0.491 OA
ATOM     20  C   UNL     1     -18.655   7.570 -12.904  0.00  0.00    +0.277 C 
ENDBRANCH  17  19
BRANCH  18  21
ATOM     21  O   UNL     1     -16.360   6.480 -15.336  0.00  0.00    -0.491 OA
ATOM     22  C   UNL     1     -15.348   7.433 -15.663  0.00  0.00    +0.277 C 
ENDBRANCH  18  21
ENDBRANCH   2  13
TORSDOF 4
ENDMDL
MODEL 3
REMARK VINA RESULT:      -7.1      1.845      2.587
REMARK  Name = min_compound956.pdb
REMARK  6 active torsions:
REMARK  status: ('A' for Active; 'I' for Inactive)
REMARK    1  A    between atoms: _4  and  _21
REMARK    2  A    between atoms: _5  and  _19
REMARK    3  A    between atoms: _7  and  _17
REMARK    4  A    between atoms: _8  and  _18
REMARK    5  A    between atoms: _19  and  _20
REMARK    6  A    between atoms: _21  and  _22
REMARK                            x       y       z     vdW  Elec       q    Type
REMARK                         _______ _______ _______ _____ _____    ______ ____
ROOT
ATOM      1  C   UNL     1     -14.095   2.609 -15.876  0.00  0.00    +0.029 C 
ATOM      2  C   UNL     1     -14.816   3.604 -15.333  0.00  0.00    +0.014 C 
ENDROOT
BRANCH   1  12
ATOM      3  N   UNL     1     -12.313   4.079 -16.465  0.00  0.00    -0.255 NA
ATOM      4  C   UNL     1     -11.044   4.311 -16.843  0.00  0.00    +0.112 A 
ATOM      5  C   UNL     1     -10.127   3.312 -17.112  0.00  0.00    +0.028 A 
ATOM      6  C   UNL     1     -10.529   1.979 -16.994  0.00  0.00    -0.014 A 
ATOM      7  C   UNL     1      -9.628   0.938 -17.277  0.00  0.00    +0.008 A 
ATOM      8  C   UNL     1     -10.020  -0.395 -17.178  0.00  0.00    +0.001 A 
ATOM      9  C   UNL     1     -11.318  -0.708 -16.796  0.00  0.00    +0.001 A 
ATOM     10  C   UNL     1     -12.224   0.315 -16.507  0.00  0.00    +0.010 A 
ATOM     11  C   UNL     1     -11.851   1.682 -16.593  0.00  0.00    +0.008 A 
ATOM     12  C   UNL     1     -12.705   2.784 -16.334  0.00  0.00    +0.072 A 
ENDBRANCH   1  12
BRANCH   2  13
ATOM     13  C   UNL     1     -16.206   3.481 -14.857  0.00  0.00    +0.020 A 
ATOM     14  C   UNL     1     -16.384   3.255 -13.480  0.00  0.00    +0.012 A 
ATOM     15  C   UNL     1     -17.660   3.168 -12.921  0.00  0.00    +0.004 A 
ATOM     16  C   UNL     1     -18.783   3.292 -13.733  0.00  0.00    +0.049 A 
ATOM     17  C   UNL     1     -18.635   3.499 -15.104  0.00  0.00    +0.162 A 
ATOM     18  C   UNL     1     -17.353   3.644 -15.660  0.00  0.00    +0.169 A 
BRANCH  17  19
ATOM     19  O   UNL     1     -19.803   3.617 -15.815  0.00  0.00    -0.491 OA
ATOM     20  C   UNL     1     -20.352   2.352 -16.183  0.00  0.00    +0.277 C 
ENDBRANCH  17  19
BRANCH  18  21
ATOM     21  O   UNL     1     -17.222   3.935 -16.999  0.00  0.00    -0.491 OA
ATOM     22  C   UNL     1     -17.289   5.348 -17.195  0.00  0.00    +0.277 C 
ENDBRANCH  18  21
ENDBRANCH   2  13
TORSDOF 4
ENDMDL
MODEL 4
REMARK VINA RESULT:      -7.0     11.612     14.103
REMARK  Name = min_compound956.pdb
REMARK  6 active torsions:
REMARK  status: ('A' for Active; 'I' for Inactive)
REMARK    1  A    between atoms: _4  and  _21
REMARK    2  A    between atoms: _5  and  _19
REMARK    3  A    between atoms: _7  and  _17
REMARK    4  A    between atoms: _8  and  _18
REMARK    5  A    between atoms: _19  and  _20
REMARK    6  A    between atoms: _21  and  _22
REMARK                            x       y       z     vdW  Elec       q    Type
REMARK                         _______ _______ _______ _____ _____    ______ ____
ROOT
ATOM      1  C   UNL     1     -14.555  -1.942  -1.895  0.00  0.00    +0.029 C 
ATOM      2  C   UNL     1     -14.353  -1.320  -3.068  0.00  0.00    +0.014 C 
ENDROOT
BRANCH   1  12
ATOM      3  N   UNL     1     -13.043  -3.703  -1.351  0.00  0.00    -0.255 NA
ATOM      4  C   UNL     1     -12.766  -4.999  -1.121  0.00  0.00    +0.112 A 
ATOM      5  C   UNL     1     -13.697  -6.014  -1.228  0.00  0.00    +0.028 A 
ATOM      6  C   UNL     1     -15.005  -5.693  -1.601  0.00  0.00    -0.014 A 
ATOM      7  C   UNL     1     -15.973  -6.703  -1.736  0.00  0.00    +0.008 A 
ATOM      8  C   UNL     1     -17.277  -6.399  -2.123  0.00  0.00    +0.001 A 
ATOM      9  C   UNL     1     -17.632  -5.082  -2.380  0.00  0.00    +0.001 A 
ATOM     10  C   UNL     1     -16.683  -4.066  -2.246  0.00  0.00    +0.010 A 
ATOM     11  C   UNL     1     -15.349  -4.345  -1.848  0.00  0.00    +0.008 A 
ATOM     12  C   UNL     1     -14.318  -3.384  -1.700  0.00  0.00    +0.072 A 
ENDBRANCH   1  12
BRANCH   2  13
ATOM     13  C   UNL     1     -14.571   0.117  -3.315  0.00  0.00    +0.020 A 
ATOM     14  C   UNL     1     -13.428   0.937  -3.320  0.00  0.00    +0.012 A 
ATOM     15  C   UNL     1     -13.520   2.304  -3.588  0.00  0.00    +0.004 A 
ATOM     16  C   UNL     1     -14.762   2.879  -3.842  0.00  0.00    +0.049 A 
ATOM     17  C   UNL     1     -15.913   2.092  -3.825  0.00  0.00    +0.162 A 
ATOM     18  C   UNL     1     -15.816   0.706  -3.612  0.00  0.00    +0.169 A 
BRANCH  17  19
ATOM     19  O   UNL     1     -17.086   2.752  -4.095  0.00  0.00    -0.491 OA
ATOM     20  C   UNL     1     -16.908   4.163  -4.208  0.00  0.00    +0.277 C 
ENDBRANCH  17  19
BRANCH  18  21
ATOM     21  O   UNL     1     -16.948  -0.073  -3.683  0.00  0.00    -0.491 OA
ATOM     22  C   UNL     1     -17.200  -0.435  -5.042  0.00  0.00    +0.277 C 
ENDBRANCH  18  21
ENDBRANCH   2  13
TORSDOF 4
ENDMDL
MODEL 5
REMARK VINA RESULT:      -6.8      5.481      7.315
REMARK  Name = min_compound956.pdb
REMARK  6 active torsions:
REMARK  status: ('A' for Active; 'I' for Inactive)
REMARK    1  A    between atoms: _4  and  _21
REMARK    2  A    between atoms: _5  and  _19
REMARK    3  A    between atoms: _7  and  _17
REMARK    4  A    between atoms: _8  and  _18
REMARK    5  A    between atoms: _19  and  _20
REMARK    6  A    between atoms: _21  and  _22
REMARK                            x       y       z     vdW  Elec       q    Type
REMARK                         _______ _______ _______ _____ _____    ______ ____
ROOT
ATOM      1  C   UNL     1     -12.863   2.055 -19.120  0.00  0.00    +0.029 C 
ATOM      2  C   UNL     1     -13.337   3.101 -19.816  0.00  0.00    +0.014 C 
ENDROOT
BRANCH   1  12
ATOM      3  N   UNL     1     -12.576   3.328 -17.125  0.00  0.00    -0.255 NA
ATOM      4  C   UNL     1     -12.074   3.498 -15.889  0.00  0.00    +0.112 A 
ATOM      5  C   UNL     1     -11.237   2.591 -15.269  0.00  0.00    +0.028 A 
ATOM      6  C   UNL     1     -10.877   1.428 -15.954  0.00  0.00    -0.014 A 
ATOM      7  C   UNL     1     -10.012   0.492 -15.360  0.00  0.00    +0.008 A 
ATOM      8  C   UNL     1      -9.633  -0.665 -16.039  0.00  0.00    +0.001 A 
ATOM      9  C   UNL     1     -10.112  -0.903 -17.320  0.00  0.00    +0.001 A 
ATOM     10  C   UNL     1     -10.975   0.014 -17.922  0.00  0.00    +0.010 A 
ATOM     11  C   UNL     1     -11.383   1.198 -17.254  0.00  0.00    +0.008 A 
ATOM     12  C   UNL     1     -12.242   2.190 -17.790  0.00  0.00    +0.072 A 
ENDBRANCH   1  12
BRANCH   2  13
ATOM     13  C   UNL     1     -13.969   3.020 -21.145  0.00  0.00    +0.020 A 
ATOM     14  C   UNL     1     -14.731   1.868 -21.412  0.00  0.00    +0.012 A 
ATOM     15  C   UNL     1     -15.406   1.713 -22.623  0.00  0.00    +0.004 A 
ATOM     16  C   UNL     1     -15.321   2.704 -23.598  0.00  0.00    +0.049 A 
ATOM     17  C   UNL     1     -14.558   3.848 -23.365  0.00  0.00    +0.162 A 
ATOM     18  C   UNL     1     -13.924   4.032 -22.125  0.00  0.00    +0.169 A 
BRANCH  17  19
ATOM     19  O   UNL     1     -14.546   4.768 -24.384  0.00  0.00    -0.491 OA
ATOM     20  C   UNL     1     -14.368   4.165 -25.665  0.00  0.00    +0.277 C 
ENDBRANCH  17  19
BRANCH  18  21
ATOM     21  O   UNL     1     -13.246   5.204 -21.876  0.00  0.00    -0.491 OA
ATOM     22  C   UNL     1     -14.150   6.186 -21.369  0.00  0.00    +0.277 C 
ENDBRANCH  18  21
ENDBRANCH   2  13
TORSDOF 4
ENDMDL
MODEL 6
REMARK VINA RESULT:      -6.7      3.569      7.269
REMARK  Name = min_compound956.pdb
REMARK  6 active torsions:
REMARK  status: ('A' for Active; 'I' for Inactive)
REMARK    1  A    between atoms: _4  and  _21
REMARK    2  A    between atoms: _5  and  _19
REMARK    3  A    between atoms: _7  and  _17
REMARK    4  A    between atoms: _8  and  _18
REMARK    5  A    between atoms: _19  and  _20
REMARK    6  A    between atoms: _21  and  _22
REMARK                            x       y       z     vdW  Elec       q    Type
REMARK                         _______ _______ _______ _____ _____    ______ ____
ROOT
ATOM      1  C   UNL     1     -14.679   4.097 -15.355  0.00  0.00    +0.029 C 
ATOM      2  C   UNL     1     -13.364   3.826 -15.359  0.00  0.00    +0.014 C 
ENDROOT
BRANCH   1  12
ATOM      3  N   UNL     1     -15.743   5.441 -13.697  0.00  0.00    -0.255 NA
ATOM      4  C   UNL     1     -16.226   6.615 -13.253  0.00  0.00    +0.112 A 
ATOM      5  C   UNL     1     -16.233   7.775 -14.004  0.00  0.00    +0.028 A 
ATOM      6  C   UNL     1     -15.718   7.742 -15.302  0.00  0.00    -0.014 A 
ATOM      7  C   UNL     1     -15.726   8.899 -16.099  0.00  0.00    +0.008 A 
ATOM      8  C   UNL     1     -15.230   8.876 -17.402  0.00  0.00    +0.001 A 
ATOM      9  C   UNL     1     -14.718   7.696 -17.926  0.00  0.00    +0.001 A 
ATOM     10  C   UNL     1     -14.699   6.538 -17.144  0.00  0.00    +0.010 A 
ATOM     11  C   UNL     1     -15.193   6.533 -15.814  0.00  0.00    +0.008 A 
ATOM     12  C   UNL     1     -15.227   5.406 -14.954  0.00  0.00    +0.072 A 
ENDBRANCH   1  12
BRANCH   2  13
ATOM     13  C   UNL     1     -12.766   2.537 -15.753  0.00  0.00    +0.020 A 
ATOM     14  C   UNL     1     -13.652   1.540 -16.198  0.00  0.00    +0.012 A 
ATOM     15  C   UNL     1     -13.183   0.300 -16.636  0.00  0.00    +0.004 A 
ATOM     16  C   UNL     1     -11.818   0.030 -16.623  0.00  0.00    +0.049 A 
ATOM     17  C   UNL     1     -10.919   0.995 -16.169  0.00  0.00    +0.162 A 
ATOM     18  C   UNL     1     -11.384   2.264 -15.782  0.00  0.00    +0.169 A 
BRANCH  17  19
ATOM     19  O   UNL     1      -9.596   0.633 -16.204  0.00  0.00    -0.491 OA
ATOM     20  C   UNL     1      -9.412  -0.781 -16.175  0.00  0.00    +0.277 C 
ENDBRANCH  17  19
BRANCH  18  21
ATOM     21  O   UNL     1     -10.479   3.235 -15.419  0.00  0.00    -0.491 OA
ATOM     22  C   UNL     1     -10.107   4.001 -16.566  0.00  0.00    +0.277 C 
ENDBRANCH  18  21
ENDBRANCH   2  13
TORSDOF 4
ENDMDL
MODEL 7
REMARK VINA RESULT:      -6.7      2.671      3.293
REMARK  Name = min_compound956.pdb
REMARK  6 active torsions:
REMARK  status: ('A' for Active; 'I' for Inactive)
REMARK    1  A    between atoms: _4  and  _21
REMARK    2  A    between atoms: _5  and  _19
REMARK    3  A    between atoms: _7  and  _17
REMARK    4  A    between atoms: _8  and  _18
REMARK    5  A    between atoms: _19  and  _20
REMARK    6  A    between atoms: _21  and  _22
REMARK                            x       y       z     vdW  Elec       q    Type
REMARK                         _______ _______ _______ _____ _____    ______ ____
ROOT
ATOM      1  C   UNL     1     -13.556   4.790 -16.614  0.00  0.00    +0.029 C 
ATOM      2  C   UNL     1     -14.810   5.271 -16.587  0.00  0.00    +0.014 C 
ENDROOT
BRANCH   1  12
ATOM      3  N   UNL     1     -13.807   3.503 -18.606  0.00  0.00    -0.255 NA
ATOM      4  C   UNL     1     -13.472   2.472 -19.401  0.00  0.00    +0.112 A 
ATOM      5  C   UNL     1     -12.525   1.521 -19.068  0.00  0.00    +0.028 A 
ATOM      6  C   UNL     1     -11.874   1.621 -17.836  0.00  0.00    -0.014 A 
ATOM      7  C   UNL     1     -10.919   0.661 -17.458  0.00  0.00    +0.008 A 
ATOM      8  C   UNL     1     -10.274   0.739 -16.225  0.00  0.00    +0.001 A 
ATOM      9  C   UNL     1     -10.574   1.777 -15.352  0.00  0.00    +0.001 A 
ATOM     10  C   UNL     1     -11.518   2.741 -15.715  0.00  0.00    +0.010 A 
ATOM     11  C   UNL     1     -12.186   2.690 -16.965  0.00  0.00    +0.008 A 
ATOM     12  C   UNL     1     -13.166   3.613 -17.412  0.00  0.00    +0.072 A 
ENDBRANCH   1  12
BRANCH   2  13
ATOM     13  C   UNL     1     -15.251   6.444 -15.811  0.00  0.00    +0.020 A 
ATOM     14  C   UNL     1     -15.001   7.706 -16.379  0.00  0.00    +0.012 A 
ATOM     15  C   UNL     1     -15.418   8.878 -15.746  0.00  0.00    +0.004 A 
ATOM     16  C   UNL     1     -16.082   8.810 -14.524  0.00  0.00    +0.049 A 
ATOM     17  C   UNL     1     -16.326   7.572 -13.931  0.00  0.00    +0.162 A 
ATOM     18  C   UNL     1     -15.958   6.388 -14.593  0.00  0.00    +0.169 A 
BRANCH  17  19
ATOM     19  O   UNL     1     -16.994   7.611 -12.732  0.00  0.00    -0.491 OA
ATOM     20  C   UNL     1     -18.404   7.457 -12.884  0.00  0.00    +0.277 C 
ENDBRANCH  17  19
BRANCH  18  21
ATOM     21  O   UNL     1     -16.282   5.171 -14.038  0.00  0.00    -0.491 OA
ATOM     22  C   UNL     1     -15.258   4.768 -13.127  0.00  0.00    +0.277 C 
ENDBRANCH  18  21
ENDBRANCH   2  13
TORSDOF 4
ENDMDL
MODEL 8
REMARK VINA RESULT:      -6.6      5.672      8.596
REMARK  Name = min_compound956.pdb
REMARK  6 active torsions:
REMARK  status: ('A' for Active; 'I' for Inactive)
REMARK    1  A    between atoms: _4  and  _21
REMARK    2  A    between atoms: _5  and  _19
REMARK    3  A    between atoms: _7  and  _17
REMARK    4  A    between atoms: _8  and  _18
REMARK    5  A    between atoms: _19  and  _20
REMARK    6  A    between atoms: _21  and  _22
REMARK                            x       y       z     vdW  Elec       q    Type
REMARK                         _______ _______ _______ _____ _____    ______ ____
ROOT
ATOM      1  C   UNL     1     -16.531   2.273  -9.183  0.00  0.00    +0.029 C 
ATOM      2  C   UNL     1     -17.015   3.519  -9.311  0.00  0.00    +0.014 C 
ENDROOT
BRANCH   1  12
ATOM      3  N   UNL     1     -18.305   1.098  -8.108  0.00  0.00    -0.255 NA
ATOM      4  C   UNL     1     -18.768   0.232  -7.190  0.00  0.00    +0.112 A 
ATOM      5  C   UNL     1     -17.966  -0.405  -6.261  0.00  0.00    +0.028 A 
ATOM      6  C   UNL     1     -16.594  -0.139  -6.261  0.00  0.00    -0.014 A 
ATOM      7  C   UNL     1     -15.752  -0.755  -5.319  0.00  0.00    +0.008 A 
ATOM      8  C   UNL     1     -14.384  -0.488  -5.297  0.00  0.00    +0.001 A 
ATOM      9  C   UNL     1     -13.839   0.399  -6.216  0.00  0.00    +0.001 A 
ATOM     10  C   UNL     1     -14.662   1.016  -7.161  0.00  0.00    +0.010 A 
ATOM     11  C   UNL     1     -16.056   0.759  -7.211  0.00  0.00    +0.008 A 
ATOM     12  C   UNL     1     -16.969   1.348  -8.122  0.00  0.00    +0.072 A 
ENDBRANCH   1  12
BRANCH   2  13
ATOM     13  C   UNL     1     -16.614   4.482 -10.353  0.00  0.00    +0.020 A 
ATOM     14  C   UNL     1     -15.376   4.254 -10.979  0.00  0.00    +0.012 A 
ATOM     15  C   UNL     1     -14.924   5.081 -12.009  0.00  0.00    +0.004 A 
ATOM     16  C   UNL     1     -15.699   6.161 -12.423  0.00  0.00    +0.049 A 
ATOM     17  C   UNL     1     -16.923   6.419 -11.807  0.00  0.00    +0.162 A 
ATOM     18  C   UNL     1     -17.406   5.555 -10.809  0.00  0.00    +0.169 A 
BRANCH  17  19
ATOM     19  O   UNL     1     -17.614   7.501 -12.293  0.00  0.00    -0.491 OA
ATOM     20  C   UNL     1     -17.461   7.662 -13.703  0.00  0.00    +0.277 C 
ENDBRANCH  17  19
BRANCH  18  21
ATOM     21  O   UNL     1     -18.653   5.771 -10.270  0.00  0.00    -0.491 OA
ATOM     22  C   UNL     1     -18.565   6.734  -9.219  0.00  0.00    +0.277 C 
ENDBRANCH  18  21
ENDBRANCH   2  13
TORSDOF 4
ENDMDL
MODEL 9
REMARK VINA RESULT:      -6.5     11.680     14.225
REMARK  Name = min_compound956.pdb
REMARK  6 active torsions:
REMARK  status: ('A' for Active; 'I' for Inactive)
REMARK    1  A    between atoms: _4  and  _21
REMARK    2  A    between atoms: _5  and  _19
REMARK    3  A    between atoms: _7  and  _17
REMARK    4  A    between atoms: _8  and  _18
REMARK    5  A    between atoms: _19  and  _20
REMARK    6  A    between atoms: _21  and  _22
REMARK                            x       y       z     vdW  Elec       q    Type
REMARK                         _______ _______ _______ _____ _____    ______ ____
ROOT
ATOM      1  C   UNL     1     -15.384  -2.566  -2.489  0.00  0.00    +0.029 C 
ATOM      2  C   UNL     1     -14.956  -2.261  -3.726  0.00  0.00    +0.014 C 
ENDROOT
BRANCH   1  12
ATOM      3  N   UNL     1     -16.964  -4.350  -2.420  0.00  0.00    -0.255 NA
ATOM      4  C   UNL     1     -17.318  -5.607  -2.103  0.00  0.00    +0.112 A 
ATOM      5  C   UNL     1     -16.492  -6.494  -1.438  0.00  0.00    +0.028 A 
ATOM      6  C   UNL     1     -15.214  -6.072  -1.063  0.00  0.00    -0.014 A 
ATOM      7  C   UNL     1     -14.354  -6.942  -0.370  0.00  0.00    +0.008 A 
ATOM      8  C   UNL     1     -13.083  -6.530   0.024  0.00  0.00    +0.001 A 
ATOM      9  C   UNL     1     -12.652  -5.243  -0.269  0.00  0.00    +0.001 A 
ATOM     10  C   UNL     1     -13.492  -4.368  -0.961  0.00  0.00    +0.010 A 
ATOM     11  C   UNL     1     -14.790  -4.762  -1.379  0.00  0.00    +0.008 A 
ATOM     12  C   UNL     1     -15.715  -3.940  -2.071  0.00  0.00    +0.072 A 
ENDBRANCH   1  12
BRANCH   2  13
ATOM     13  C   UNL     1     -14.608  -0.907  -4.193  0.00  0.00    +0.020 A 
ATOM     14  C   UNL     1     -14.271   0.035  -3.204  0.00  0.00    +0.012 A 
ATOM     15  C   UNL     1     -13.884   1.332  -3.543  0.00  0.00    +0.004 A 
ATOM     16  C   UNL     1     -13.841   1.717  -4.880  0.00  0.00    +0.049 A 
ATOM     17  C   UNL     1     -14.187   0.808  -5.880  0.00  0.00    +0.162 A 
ATOM     18  C   UNL     1     -14.522  -0.515  -5.544  0.00  0.00    +0.169 A 
BRANCH  17  19
ATOM     19  O   UNL     1     -14.104   1.282  -7.165  0.00  0.00    -0.491 OA
ATOM     20  C   UNL     1     -15.323   1.874  -7.612  0.00  0.00    +0.277 C 
ENDBRANCH  17  19
BRANCH  18  21
ATOM     21  O   UNL     1     -14.778  -1.425  -6.544  0.00  0.00    -0.491 OA
ATOM     22  C   UNL     1     -16.148  -1.336  -6.939  0.00  0.00    +0.277 C 
ENDBRANCH  18  21
ENDBRANCH   2  13
TORSDOF 4
ENDMDL
