MODEL 1
REMARK VINA RESULT:      -8.3      0.000      0.000
REMARK  Name = min_compound972.pdb
REMARK  4 active torsions:
REMARK  status: ('A' for Active; 'I' for Inactive)
REMARK    1  A    between atoms: _3  and  _6
REMARK    2  A    between atoms: _4  and  _21
REMARK    3  A    between atoms: _10  and  _19
REMARK    4  A    between atoms: _15  and  _19
REMARK                            x       y       z     vdW  Elec       q    Type
REMARK                         _______ _______ _______ _____ _____    ______ ____
ROOT
ATOM      1  C   UNL     1     -15.562   3.471 -13.989  0.00  0.00    -0.018 A 
ATOM      2  C   UNL     1     -15.965   2.393 -14.790  0.00  0.00    +0.009 A 
ATOM      3  C   UNL     1     -15.196   1.979 -15.883  0.00  0.00    +0.012 A 
ATOM      4  C   UNL     1     -14.000   2.628 -16.217  0.00  0.00    +0.022 A 
ATOM      5  C   UNL     1     -13.594   3.705 -15.420  0.00  0.00    +0.012 A 
ATOM      6  C   UNL     1     -14.366   4.125 -14.327  0.00  0.00    +0.009 A 
ENDROOT
BRANCH   1   8
ATOM      7  C   UNL     1     -16.000   5.016 -12.067  0.00  0.00    +0.012 A 
ATOM      8  C   UNL     1     -16.361   3.885 -12.823  0.00  0.00    -0.018 A 
ATOM      9  C   UNL     1     -17.500   3.166 -12.426  0.00  0.00    +0.012 A 
ATOM     10  C   UNL     1     -18.250   3.555 -11.311  0.00  0.00    +0.046 A 
ATOM     11  C   UNL     1     -17.865   4.676 -10.584  0.00  0.00    +0.117 A 
ATOM     12  C   UNL     1     -16.747   5.410 -10.953  0.00  0.00    +0.046 A 
BRANCH  11  13
ATOM     13  O   UNL     1     -18.565   5.088  -9.489  0.00  0.00    -0.507 OA
ATOM     14  H   UNL     1     -19.269   5.686  -9.788  0.00  0.00    +0.292 HD
ENDBRANCH  11  13
ENDBRANCH   1   8
BRANCH   4  15
ATOM     15  C   UNL     1     -13.168   2.144 -17.381  0.00  0.00    +0.193 C 
ATOM     16  O   UNL     1     -13.464   2.518 -18.558  0.00  0.00    -0.287 OA
BRANCH  15  17
ATOM     17  C   UNL     1     -11.986   1.227 -17.148  0.00  0.00    +0.022 A 
ATOM     18  C   UNL     1     -10.681   1.605 -17.500  0.00  0.00    +0.012 A 
ATOM     19  C   UNL     1      -9.598   0.741 -17.293  0.00  0.00    +0.001 A 
ATOM     20  C   UNL     1      -9.804  -0.522 -16.742  0.00  0.00    +0.000 A 
ATOM     21  C   UNL     1     -11.093  -0.922 -16.398  0.00  0.00    +0.001 A 
ATOM     22  C   UNL     1     -12.169  -0.054 -16.600  0.00  0.00    +0.012 A 
ENDBRANCH  15  17
ENDBRANCH   4  15
TORSDOF 4
ENDMDL
MODEL 2
REMARK VINA RESULT:      -8.3      0.038      1.051
REMARK  Name = min_compound972.pdb
REMARK  4 active torsions:
REMARK  status: ('A' for Active; 'I' for Inactive)
REMARK    1  A    between atoms: _3  and  _6
REMARK    2  A    between atoms: _4  and  _21
REMARK    3  A    between atoms: _10  and  _19
REMARK    4  A    between atoms: _15  and  _19
REMARK                            x       y       z     vdW  Elec       q    Type
REMARK                         _______ _______ _______ _____ _____    ______ ____
ROOT
ATOM      1  C   UNL     1     -15.543   3.470 -13.985  0.00  0.00    -0.018 A 
ATOM      2  C   UNL     1     -15.966   2.405 -14.793  0.00  0.00    +0.009 A 
ATOM      3  C   UNL     1     -15.208   1.988 -15.892  0.00  0.00    +0.012 A 
ATOM      4  C   UNL     1     -14.003   2.621 -16.225  0.00  0.00    +0.022 A 
ATOM      5  C   UNL     1     -13.576   3.684 -15.421  0.00  0.00    +0.012 A 
ATOM      6  C   UNL     1     -14.337   4.108 -14.321  0.00  0.00    +0.009 A 
ENDROOT
BRANCH   1   8
ATOM      7  C   UNL     1     -15.981   5.038 -12.081  0.00  0.00    +0.012 A 
ATOM      8  C   UNL     1     -16.331   3.887 -12.812  0.00  0.00    -0.018 A 
ATOM      9  C   UNL     1     -17.448   3.151 -12.384  0.00  0.00    +0.012 A 
ATOM     10  C   UNL     1     -18.187   3.543 -11.263  0.00  0.00    +0.046 A 
ATOM     11  C   UNL     1     -17.813   4.683 -10.561  0.00  0.00    +0.117 A 
ATOM     12  C   UNL     1     -16.718   5.434 -10.961  0.00  0.00    +0.046 A 
BRANCH  11  13
ATOM     13  O   UNL     1     -18.504   5.100  -9.461  0.00  0.00    -0.507 OA
ATOM     14  H   UNL     1     -18.891   5.968  -9.658  0.00  0.00    +0.292 HD
ENDBRANCH  11  13
ENDBRANCH   1   8
BRANCH   4  15
ATOM     15  C   UNL     1     -13.183   2.134 -17.397  0.00  0.00    +0.193 C 
ATOM     16  O   UNL     1     -13.481   2.518 -18.570  0.00  0.00    -0.287 OA
BRANCH  15  17
ATOM     17  C   UNL     1     -12.010   1.202 -17.175  0.00  0.00    +0.022 A 
ATOM     18  C   UNL     1     -12.177  -0.067 -16.599  0.00  0.00    +0.012 A 
ATOM     19  C   UNL     1     -11.083  -0.913 -16.386  0.00  0.00    +0.001 A 
ATOM     20  C   UNL     1      -9.798  -0.499 -16.733  0.00  0.00    +0.000 A 
ATOM     21  C   UNL     1      -9.608   0.762 -17.293  0.00  0.00    +0.001 A 
ATOM     22  C   UNL     1     -10.705   1.600 -17.510  0.00  0.00    +0.012 A 
ENDBRANCH  15  17
ENDBRANCH   4  15
TORSDOF 4
ENDMDL
MODEL 3
REMARK VINA RESULT:      -8.2      1.224      1.406
REMARK  Name = min_compound972.pdb
REMARK  4 active torsions:
REMARK  status: ('A' for Active; 'I' for Inactive)
REMARK    1  A    between atoms: _3  and  _6
REMARK    2  A    between atoms: _4  and  _21
REMARK    3  A    between atoms: _10  and  _19
REMARK    4  A    between atoms: _15  and  _19
REMARK                            x       y       z     vdW  Elec       q    Type
REMARK                         _______ _______ _______ _____ _____    ______ ____
ROOT
ATOM      1  C   UNL     1     -16.436   3.260 -13.578  0.00  0.00    -0.018 A 
ATOM      2  C   UNL     1     -16.571   2.243 -14.535  0.00  0.00    +0.009 A 
ATOM      3  C   UNL     1     -15.596   2.043 -15.517  0.00  0.00    +0.012 A 
ATOM      4  C   UNL     1     -14.454   2.853 -15.582  0.00  0.00    +0.022 A 
ATOM      5  C   UNL     1     -14.315   3.868 -14.629  0.00  0.00    +0.012 A 
ATOM      6  C   UNL     1     -15.294   4.075 -13.646  0.00  0.00    +0.009 A 
ENDROOT
BRANCH   1   8
ATOM      7  C   UNL     1     -17.143   3.216 -11.176  0.00  0.00    +0.012 A 
ATOM      8  C   UNL     1     -17.453   3.449 -12.529  0.00  0.00    -0.018 A 
ATOM      9  C   UNL     1     -18.759   3.859 -12.843  0.00  0.00    +0.012 A 
ATOM     10  C   UNL     1     -19.726   4.025 -11.845  0.00  0.00    +0.046 A 
ATOM     11  C   UNL     1     -19.388   3.784 -10.518  0.00  0.00    +0.117 A 
ATOM     12  C   UNL     1     -18.105   3.383 -10.175  0.00  0.00    +0.046 A 
BRANCH  11  13
ATOM     13  O   UNL     1     -20.299   3.931  -9.514  0.00  0.00    -0.507 OA
ATOM     14  H   UNL     1     -20.547   3.047  -9.199  0.00  0.00    +0.292 HD
ENDBRANCH  11  13
ENDBRANCH   1   8
BRANCH   4  15
ATOM     15  C   UNL     1     -13.396   2.599 -16.631  0.00  0.00    +0.193 C 
ATOM     16  O   UNL     1     -13.434   3.243 -17.724  0.00  0.00    -0.287 OA
BRANCH  15  17
ATOM     17  C   UNL     1     -12.295   1.590 -16.379  0.00  0.00    +0.022 A 
ATOM     18  C   UNL     1     -11.096   1.953 -15.746  0.00  0.00    +0.012 A 
ATOM     19  C   UNL     1     -10.080   1.013 -15.533  0.00  0.00    +0.001 A 
ATOM     20  C   UNL     1     -10.240  -0.303 -15.962  0.00  0.00    +0.000 A 
ATOM     21  C   UNL     1     -11.417  -0.680 -16.604  0.00  0.00    +0.001 A 
ATOM     22  C   UNL     1     -12.431   0.259 -16.808  0.00  0.00    +0.012 A 
ENDBRANCH  15  17
ENDBRANCH   4  15
TORSDOF 4
ENDMDL
MODEL 4
REMARK VINA RESULT:      -7.9      1.471      1.879
REMARK  Name = min_compound972.pdb
REMARK  4 active torsions:
REMARK  status: ('A' for Active; 'I' for Inactive)
REMARK    1  A    between atoms: _3  and  _6
REMARK    2  A    between atoms: _4  and  _21
REMARK    3  A    between atoms: _10  and  _19
REMARK    4  A    between atoms: _15  and  _19
REMARK                            x       y       z     vdW  Elec       q    Type
REMARK                         _______ _______ _______ _____ _____    ______ ____
ROOT
ATOM      1  C   UNL     1     -14.953   4.327 -15.177  0.00  0.00    -0.018 A 
ATOM      2  C   UNL     1     -15.166   2.941 -15.233  0.00  0.00    +0.009 A 
ATOM      3  C   UNL     1     -14.458   2.138 -16.132  0.00  0.00    +0.012 A 
ATOM      4  C   UNL     1     -13.515   2.689 -17.010  0.00  0.00    +0.022 A 
ATOM      5  C   UNL     1     -13.299   4.071 -16.958  0.00  0.00    +0.012 A 
ATOM      6  C   UNL     1     -14.012   4.880 -16.060  0.00  0.00    +0.009 A 
ENDROOT
BRANCH   1   8
ATOM      7  C   UNL     1     -15.717   4.821 -12.844  0.00  0.00    +0.012 A 
ATOM      8  C   UNL     1     -15.682   5.164 -14.208  0.00  0.00    -0.018 A 
ATOM      9  C   UNL     1     -16.366   6.321 -14.613  0.00  0.00    +0.012 A 
ATOM     10  C   UNL     1     -17.067   7.108 -13.692  0.00  0.00    +0.046 A 
ATOM     11  C   UNL     1     -17.084   6.740 -12.351  0.00  0.00    +0.117 A 
ATOM     12  C   UNL     1     -16.414   5.604 -11.919  0.00  0.00    +0.046 A 
BRANCH  11  13
ATOM     13  O   UNL     1     -17.757   7.476 -11.420  0.00  0.00    -0.507 OA
ATOM     14  H   UNL     1     -17.737   8.406 -11.699  0.00  0.00    +0.292 HD
ENDBRANCH  11  13
ENDBRANCH   1   8
BRANCH   4  15
ATOM     15  C   UNL     1     -12.737   1.800 -17.952  0.00  0.00    +0.193 C 
ATOM     16  O   UNL     1     -13.009   1.814 -19.192  0.00  0.00    -0.287 OA
BRANCH  15  17
ATOM     17  C   UNL     1     -11.636   0.904 -17.424  0.00  0.00    +0.022 A 
ATOM     18  C   UNL     1     -10.285   1.150 -17.713  0.00  0.00    +0.012 A 
ATOM     19  C   UNL     1      -9.278   0.305 -17.231  0.00  0.00    +0.001 A 
ATOM     20  C   UNL     1      -9.607  -0.810 -16.462  0.00  0.00    +0.000 A 
ATOM     21  C   UNL     1     -10.943  -1.080 -16.175  0.00  0.00    +0.001 A 
ATOM     22  C   UNL     1     -11.943  -0.230 -16.652  0.00  0.00    +0.012 A 
ENDBRANCH  15  17
ENDBRANCH   4  15
TORSDOF 4
ENDMDL
MODEL 5
REMARK VINA RESULT:      -7.8      2.999      3.613
REMARK  Name = min_compound972.pdb
REMARK  4 active torsions:
REMARK  status: ('A' for Active; 'I' for Inactive)
REMARK    1  A    between atoms: _3  and  _6
REMARK    2  A    between atoms: _4  and  _21
REMARK    3  A    between atoms: _10  and  _19
REMARK    4  A    between atoms: _15  and  _19
REMARK                            x       y       z     vdW  Elec       q    Type
REMARK                         _______ _______ _______ _____ _____    ______ ____
ROOT
ATOM      1  C   UNL     1     -14.307   5.313 -16.651  0.00  0.00    -0.018 A 
ATOM      2  C   UNL     1     -14.955   4.069 -16.629  0.00  0.00    +0.009 A 
ATOM      3  C   UNL     1     -14.373   2.942 -17.220  0.00  0.00    +0.012 A 
ATOM      4  C   UNL     1     -13.127   3.018 -17.857  0.00  0.00    +0.022 A 
ATOM      5  C   UNL     1     -12.478   4.257 -17.882  0.00  0.00    +0.012 A 
ATOM      6  C   UNL     1     -13.061   5.390 -17.294  0.00  0.00    +0.009 A 
ENDROOT
BRANCH   1   8
ATOM      7  C   UNL     1     -14.794   7.768 -16.577  0.00  0.00    +0.012 A 
ATOM      8  C   UNL     1     -14.911   6.490 -16.002  0.00  0.00    -0.018 A 
ATOM      9  C   UNL     1     -15.616   6.375 -14.793  0.00  0.00    +0.012 A 
ATOM     10  C   UNL     1     -16.178   7.496 -14.173  0.00  0.00    +0.046 A 
ATOM     11  C   UNL     1     -16.041   8.746 -14.766  0.00  0.00    +0.117 A 
ATOM     12  C   UNL     1     -15.355   8.891 -15.963  0.00  0.00    +0.046 A 
BRANCH  11  13
ATOM     13  O   UNL     1     -16.571   9.866 -14.194  0.00  0.00    -0.507 OA
ATOM     14  H   UNL     1     -17.450   9.641 -13.849  0.00  0.00    +0.292 HD
ENDBRANCH  11  13
ENDBRANCH   1   8
BRANCH   4  15
ATOM     15  C   UNL     1     -12.502   1.783 -18.461  0.00  0.00    +0.193 C 
ATOM     16  O   UNL     1     -12.748   1.487 -19.672  0.00  0.00    -0.287 OA
BRANCH  15  17
ATOM     17  C   UNL     1     -11.584   0.908 -17.634  0.00  0.00    +0.022 A 
ATOM     18  C   UNL     1     -10.189   1.061 -17.673  0.00  0.00    +0.012 A 
ATOM     19  C   UNL     1      -9.350   0.236 -16.914  0.00  0.00    +0.001 A 
ATOM     20  C   UNL     1      -9.892  -0.769 -16.114  0.00  0.00    +0.000 A 
ATOM     21  C   UNL     1     -11.273  -0.947 -16.072  0.00  0.00    +0.001 A 
ATOM     22  C   UNL     1     -12.106  -0.116 -16.825  0.00  0.00    +0.012 A 
ENDBRANCH  15  17
ENDBRANCH   4  15
TORSDOF 4
ENDMDL
MODEL 6
REMARK VINA RESULT:      -7.5      5.527      9.748
REMARK  Name = min_compound972.pdb
REMARK  4 active torsions:
REMARK  status: ('A' for Active; 'I' for Inactive)
REMARK    1  A    between atoms: _3  and  _6
REMARK    2  A    between atoms: _4  and  _21
REMARK    3  A    between atoms: _10  and  _19
REMARK    4  A    between atoms: _15  and  _19
REMARK                            x       y       z     vdW  Elec       q    Type
REMARK                         _______ _______ _______ _____ _____    ______ ____
ROOT
ATOM      1  C   UNL     1     -16.546   3.242  -9.211  0.00  0.00    -0.018 A 
ATOM      2  C   UNL     1     -17.212   4.063  -8.289  0.00  0.00    +0.009 A 
ATOM      3  C   UNL     1     -17.311   3.700  -6.941  0.00  0.00    +0.012 A 
ATOM      4  C   UNL     1     -16.753   2.505  -6.468  0.00  0.00    +0.022 A 
ATOM      5  C   UNL     1     -16.088   1.684  -7.385  0.00  0.00    +0.012 A 
ATOM      6  C   UNL     1     -15.991   2.042  -8.738  0.00  0.00    +0.009 A 
ENDROOT
BRANCH   1   8
ATOM      7  C   UNL     1     -17.255   3.083 -11.608  0.00  0.00    +0.012 A 
ATOM      8  C   UNL     1     -16.420   3.642 -10.624  0.00  0.00    -0.018 A 
ATOM      9  C   UNL     1     -15.463   4.586 -11.032  0.00  0.00    +0.012 A 
ATOM     10  C   UNL     1     -15.338   4.955 -12.376  0.00  0.00    +0.046 A 
ATOM     11  C   UNL     1     -16.178   4.381 -13.325  0.00  0.00    +0.117 A 
ATOM     12  C   UNL     1     -17.135   3.449 -12.951  0.00  0.00    +0.046 A 
BRANCH  11  13
ATOM     13  O   UNL     1     -16.088   4.710 -14.645  0.00  0.00    -0.507 OA
ATOM     14  H   UNL     1     -15.366   5.352 -14.748  0.00  0.00    +0.292 HD
ENDBRANCH  11  13
ENDBRANCH   1   8
BRANCH   4  15
ATOM     15  C   UNL     1     -16.843   2.148  -5.003  0.00  0.00    +0.193 C 
ATOM     16  O   UNL     1     -17.951   2.279  -4.396  0.00  0.00    -0.287 OA
BRANCH  15  17
ATOM     17  C   UNL     1     -15.626   1.632  -4.265  0.00  0.00    +0.022 A 
ATOM     18  C   UNL     1     -14.499   2.440  -4.050  0.00  0.00    +0.012 A 
ATOM     19  C   UNL     1     -13.374   1.945  -3.379  0.00  0.00    +0.001 A 
ATOM     20  C   UNL     1     -13.351   0.628  -2.923  0.00  0.00    +0.000 A 
ATOM     21  C   UNL     1     -14.454  -0.194  -3.138  0.00  0.00    +0.001 A 
ATOM     22  C   UNL     1     -15.577   0.306  -3.802  0.00  0.00    +0.012 A 
ENDBRANCH  15  17
ENDBRANCH   4  15
TORSDOF 4
ENDMDL
MODEL 7
REMARK VINA RESULT:      -7.5      1.969      8.028
REMARK  Name = min_compound972.pdb
REMARK  4 active torsions:
REMARK  status: ('A' for Active; 'I' for Inactive)
REMARK    1  A    between atoms: _3  and  _6
REMARK    2  A    between atoms: _4  and  _21
REMARK    3  A    between atoms: _10  and  _19
REMARK    4  A    between atoms: _15  and  _19
REMARK                            x       y       z     vdW  Elec       q    Type
REMARK                         _______ _______ _______ _____ _____    ______ ____
ROOT
ATOM      1  C   UNL     1     -13.621   2.382 -15.848  0.00  0.00    -0.018 A 
ATOM      2  C   UNL     1     -13.614   3.706 -15.384  0.00  0.00    +0.009 A 
ATOM      3  C   UNL     1     -14.774   4.297 -14.873  0.00  0.00    +0.012 A 
ATOM      4  C   UNL     1     -15.982   3.591 -14.811  0.00  0.00    +0.022 A 
ATOM      5  C   UNL     1     -15.994   2.269 -15.272  0.00  0.00    +0.012 A 
ATOM      6  C   UNL     1     -14.833   1.675 -15.789  0.00  0.00    +0.009 A 
ENDROOT
BRANCH   1   8
ATOM      7  C   UNL     1     -12.338   0.372 -16.612  0.00  0.00    +0.012 A 
ATOM      8  C   UNL     1     -12.389   1.755 -16.358  0.00  0.00    -0.018 A 
ATOM      9  C   UNL     1     -11.231   2.512 -16.601  0.00  0.00    +0.012 A 
ATOM     10  C   UNL     1     -10.060   1.911 -17.075  0.00  0.00    +0.046 A 
ATOM     11  C   UNL     1     -10.041   0.541 -17.313  0.00  0.00    +0.117 A 
ATOM     12  C   UNL     1     -11.170  -0.233 -17.087  0.00  0.00    +0.046 A 
BRANCH  11  13
ATOM     13  O   UNL     1      -8.920  -0.085 -17.772  0.00  0.00    -0.507 OA
ATOM     14  H   UNL     1      -8.214   0.578 -17.851  0.00  0.00    +0.292 HD
ENDBRANCH  11  13
ENDBRANCH   1   8
BRANCH   4  15
ATOM     15  C   UNL     1     -17.216   4.237 -14.226  0.00  0.00    +0.193 C 
ATOM     16  O   UNL     1     -17.869   5.077 -14.919  0.00  0.00    -0.287 OA
BRANCH  15  17
ATOM     17  C   UNL     1     -17.675   3.883 -12.827  0.00  0.00    +0.022 A 
ATOM     18  C   UNL     1     -18.988   4.135 -12.398  0.00  0.00    +0.012 A 
ATOM     19  C   UNL     1     -19.395   3.816 -11.097  0.00  0.00    +0.001 A 
ATOM     20  C   UNL     1     -18.493   3.252 -10.197  0.00  0.00    +0.000 A 
ATOM     21  C   UNL     1     -17.182   3.007 -10.599  0.00  0.00    +0.001 A 
ATOM     22  C   UNL     1     -16.782   3.320 -11.900  0.00  0.00    +0.012 A 
ENDBRANCH  15  17
ENDBRANCH   4  15
TORSDOF 4
ENDMDL
MODEL 8
REMARK VINA RESULT:      -7.3      4.521      5.707
REMARK  Name = min_compound972.pdb
REMARK  4 active torsions:
REMARK  status: ('A' for Active; 'I' for Inactive)
REMARK    1  A    between atoms: _3  and  _6
REMARK    2  A    between atoms: _4  and  _21
REMARK    3  A    between atoms: _10  and  _19
REMARK    4  A    between atoms: _15  and  _19
REMARK                            x       y       z     vdW  Elec       q    Type
REMARK                         _______ _______ _______ _____ _____    ______ ____
ROOT
ATOM      1  C   UNL     1     -13.736   6.430 -17.548  0.00  0.00    -0.018 A 
ATOM      2  C   UNL     1     -14.069   5.320 -16.757  0.00  0.00    +0.009 A 
ATOM      3  C   UNL     1     -13.083   4.441 -16.298  0.00  0.00    +0.012 A 
ATOM      4  C   UNL     1     -11.732   4.636 -16.614  0.00  0.00    +0.022 A 
ATOM      5  C   UNL     1     -11.395   5.742 -17.402  0.00  0.00    +0.012 A 
ATOM      6  C   UNL     1     -12.383   6.623 -17.869  0.00  0.00    +0.009 A 
ENDROOT
BRANCH   1   8
ATOM      7  C   UNL     1     -15.334   7.254 -19.292  0.00  0.00    +0.012 A 
ATOM      8  C   UNL     1     -14.776   7.369 -18.006  0.00  0.00    -0.018 A 
ATOM      9  C   UNL     1     -15.237   8.407 -17.180  0.00  0.00    +0.012 A 
ATOM     10  C   UNL     1     -16.215   9.305 -17.622  0.00  0.00    +0.046 A 
ATOM     11  C   UNL     1     -16.744   9.164 -18.900  0.00  0.00    +0.117 A 
ATOM     12  C   UNL     1     -16.313   8.146 -19.738  0.00  0.00    +0.046 A 
BRANCH  11  13
ATOM     13  O   UNL     1     -17.697  10.018 -19.372  0.00  0.00    -0.507 OA
ATOM     14  H   UNL     1     -17.319  10.913 -19.391  0.00  0.00    +0.292 HD
ENDBRANCH  11  13
ENDBRANCH   1   8
BRANCH   4  15
ATOM     15  C   UNL     1     -10.679   3.693 -16.081  0.00  0.00    +0.193 C 
ATOM     16  O   UNL     1      -9.740   4.150 -15.358  0.00  0.00    -0.287 OA
BRANCH  15  17
ATOM     17  C   UNL     1     -10.745   2.214 -16.398  0.00  0.00    +0.022 A 
ATOM     18  C   UNL     1     -10.206   1.250 -15.531  0.00  0.00    +0.012 A 
ATOM     19  C   UNL     1     -10.261  -0.114 -15.844  0.00  0.00    +0.001 A 
ATOM     20  C   UNL     1     -10.844  -0.537 -17.037  0.00  0.00    +0.000 A 
ATOM     21  C   UNL     1     -11.373   0.404 -17.917  0.00  0.00    +0.001 A 
ATOM     22  C   UNL     1     -11.322   1.763 -17.598  0.00  0.00    +0.012 A 
ENDBRANCH  15  17
ENDBRANCH   4  15
TORSDOF 4
ENDMDL
MODEL 9
REMARK VINA RESULT:      -7.2      6.137      9.101
REMARK  Name = min_compound972.pdb
REMARK  4 active torsions:
REMARK  status: ('A' for Active; 'I' for Inactive)
REMARK    1  A    between atoms: _3  and  _6
REMARK    2  A    between atoms: _4  and  _21
REMARK    3  A    between atoms: _10  and  _19
REMARK    4  A    between atoms: _15  and  _19
REMARK                            x       y       z     vdW  Elec       q    Type
REMARK                         _______ _______ _______ _____ _____    ______ ____
ROOT
ATOM      1  C   UNL     1     -16.118   0.814  -6.102  0.00  0.00    -0.018 A 
ATOM      2  C   UNL     1     -16.688   2.093  -6.014  0.00  0.00    +0.009 A 
ATOM      3  C   UNL     1     -17.231   2.719  -7.140  0.00  0.00    +0.012 A 
ATOM      4  C   UNL     1     -17.222   2.094  -8.394  0.00  0.00    +0.022 A 
ATOM      5  C   UNL     1     -16.654   0.818  -8.487  0.00  0.00    +0.012 A 
ATOM      6  C   UNL     1     -16.103   0.190  -7.360  0.00  0.00    +0.009 A 
ENDROOT
BRANCH   1   8
ATOM      7  C   UNL     1     -14.470   0.689  -4.219  0.00  0.00    +0.012 A 
ATOM      8  C   UNL     1     -15.572   0.147  -4.906  0.00  0.00    -0.018 A 
ATOM      9  C   UNL     1     -16.127  -1.048  -4.420  0.00  0.00    +0.012 A 
ATOM     10  C   UNL     1     -15.599  -1.685  -3.292  0.00  0.00    +0.046 A 
ATOM     11  C   UNL     1     -14.508  -1.124  -2.637  0.00  0.00    +0.117 A 
ATOM     12  C   UNL     1     -13.940   0.058  -3.091  0.00  0.00    +0.046 A 
BRANCH  11  13
ATOM     13  O   UNL     1     -13.960  -1.714  -1.536  0.00  0.00    -0.507 OA
ATOM     14  H   UNL     1     -14.515  -2.473  -1.292  0.00  0.00    +0.292 HD
ENDBRANCH  11  13
ENDBRANCH   1   8
BRANCH   4  15
ATOM     15  C   UNL     1     -17.843   2.774  -9.591  0.00  0.00    +0.193 C 
ATOM     16  O   UNL     1     -19.107   2.853  -9.678  0.00  0.00    -0.287 OA
BRANCH  15  17
ATOM     17  C   UNL     1     -16.967   3.364 -10.676  0.00  0.00    +0.022 A 
ATOM     18  C   UNL     1     -17.203   3.106 -12.035  0.00  0.00    +0.012 A 
ATOM     19  C   UNL     1     -16.376   3.646 -13.028  0.00  0.00    +0.001 A 
ATOM     20  C   UNL     1     -15.288   4.443 -12.677  0.00  0.00    +0.000 A 
ATOM     21  C   UNL     1     -15.028   4.701 -11.333  0.00  0.00    +0.001 A 
ATOM     22  C   UNL     1     -15.860   4.166 -10.347  0.00  0.00    +0.012 A 
ENDBRANCH  15  17
ENDBRANCH   4  15
TORSDOF 4
ENDMDL
