MODEL 1
REMARK VINA RESULT:      -7.5      0.000      0.000
REMARK  Name = min_compound912.pdb
REMARK  5 active torsions:
REMARK  status: ('A' for Active; 'I' for Inactive)
REMARK    1  A    between atoms: _2  and  _19
REMARK    2  A    between atoms: _4  and  _21
REMARK    3  A    between atoms: _12  and  _21
REMARK    4  A    between atoms: _16  and  _22
REMARK    5  A    between atoms: _19  and  _20
REMARK                            x       y       z     vdW  Elec       q    Type
REMARK                         _______ _______ _______ _____ _____    ______ ____
ROOT
ATOM      1  O   UNL     1     -12.768   1.959 -20.299  0.00  0.00    -0.270 OA
ATOM      2  C   UNL     1     -12.826   1.872 -19.074  0.00  0.00    +0.245 C 
ATOM      3  N   UNL     1     -12.225   0.817 -18.461  0.00  0.00    -0.297 N 
ATOM      4  H   UNL     1     -11.701   0.232 -19.101  0.00  0.00    +0.150 HD
ATOM      5  C   UNL     1     -11.939   0.746 -17.052  0.00  0.00    +0.087 C 
ATOM      6  C   UNL     1     -11.503  -0.685 -16.644  0.00  0.00    +0.037 C 
ATOM      7  C   UNL     1     -10.053  -0.564 -16.181  0.00  0.00    +0.003 C 
ATOM      8  C   UNL     1      -9.962   0.848 -15.636  0.00  0.00    +0.003 C 
ATOM      9  C   UNL     1     -10.746   1.649 -16.665  0.00  0.00    +0.037 C 
ATOM     10  S   UNL     1     -13.464   1.179 -16.164  0.00  0.00    -0.084 S 
ATOM     11  C   UNL     1     -13.828   2.741 -16.926  0.00  0.00    +0.077 C 
ATOM     12  C   UNL     1     -13.518   2.908 -18.239  0.00  0.00    +0.055 C 
ENDROOT
BRANCH  11  13
ATOM     13  N   UNL     1     -14.538   3.720 -16.210  0.00  0.00    -0.309 N 
ATOM     14  H   UNL     1     -14.085   4.630 -16.216  0.00  0.00    +0.153 HD
BRANCH  13  15
ATOM     15  C   UNL     1     -15.268   3.563 -15.004  0.00  0.00    +0.032 A 
ATOM     16  C   UNL     1     -16.422   2.782 -14.879  0.00  0.00    +0.023 A 
ATOM     17  C   UNL     1     -17.106   2.690 -13.666  0.00  0.00    +0.002 A 
ATOM     18  C   UNL     1     -16.654   3.392 -12.556  0.00  0.00    +0.003 A 
ATOM     19  C   UNL     1     -15.518   4.204 -12.648  0.00  0.00    -0.049 A 
ATOM     20  C   UNL     1     -15.104   4.926 -11.402  0.00  0.00    +0.044 C 
ATOM     21  C   UNL     1     -14.843   4.293 -13.877  0.00  0.00    +0.026 A 
ENDBRANCH  13  15
ENDBRANCH  11  13
BRANCH  12  22
ATOM     22  C   UNL     1     -13.858   4.126 -18.913  0.00  0.00    +0.121 C 
BRANCH  22  23
ATOM     23  N   UNL     1     -14.188   5.358 -19.611  0.00  0.00    -0.326 NA
ATOM     24  H   UNL     1     -15.146   5.630 -19.386  0.00  0.00    +0.119 HD
ATOM     25  H   UNL     1     -13.548   6.096 -19.319  0.00  0.00    +0.119 HD
ENDBRANCH  22  23
ENDBRANCH  12  22
TORSDOF 4
ENDMDL
MODEL 2
REMARK VINA RESULT:      -7.1     13.336     15.502
REMARK  Name = min_compound912.pdb
REMARK  5 active torsions:
REMARK  status: ('A' for Active; 'I' for Inactive)
REMARK    1  A    between atoms: _2  and  _19
REMARK    2  A    between atoms: _4  and  _21
REMARK    3  A    between atoms: _12  and  _21
REMARK    4  A    between atoms: _16  and  _22
REMARK    5  A    between atoms: _19  and  _20
REMARK                            x       y       z     vdW  Elec       q    Type
REMARK                         _______ _______ _______ _____ _____    ______ ____
ROOT
ATOM      1  O   UNL     1     -17.823  -3.976  -0.437  0.00  0.00    -0.270 OA
ATOM      2  C   UNL     1     -16.676  -4.007  -0.877  0.00  0.00    +0.245 C 
ATOM      3  N   UNL     1     -15.706  -4.617  -0.143  0.00  0.00    -0.297 N 
ATOM      4  H   UNL     1     -16.065  -5.072   0.687  0.00  0.00    +0.150 HD
ATOM      5  C   UNL     1     -14.417  -5.003  -0.653  0.00  0.00    +0.087 C 
ATOM      6  C   UNL     1     -13.465  -5.421   0.497  0.00  0.00    +0.037 C 
ATOM      7  C   UNL     1     -13.175  -6.904   0.282  0.00  0.00    +0.003 C 
ATOM      8  C   UNL     1     -13.285  -7.081  -1.221  0.00  0.00    +0.003 C 
ATOM      9  C   UNL     1     -14.513  -6.250  -1.561  0.00  0.00    +0.037 C 
ATOM     10  S   UNL     1     -13.717  -3.562  -1.512  0.00  0.00    -0.084 S 
ATOM     11  C   UNL     1     -15.047  -3.195  -2.628  0.00  0.00    +0.077 C 
ATOM     12  C   UNL     1     -16.323  -3.412  -2.208  0.00  0.00    +0.055 C 
ENDROOT
BRANCH  11  13
ATOM     13  N   UNL     1     -14.777  -2.572  -3.858  0.00  0.00    -0.309 N 
ATOM     14  H   UNL     1     -14.222  -3.148  -4.487  0.00  0.00    +0.153 HD
BRANCH  13  15
ATOM     15  C   UNL     1     -14.499  -1.203  -4.101  0.00  0.00    +0.032 A 
ATOM     16  C   UNL     1     -14.297  -0.250  -3.097  0.00  0.00    +0.023 A 
ATOM     17  C   UNL     1     -14.051   1.089  -3.406  0.00  0.00    +0.002 A 
ATOM     18  C   UNL     1     -14.015   1.501  -4.732  0.00  0.00    +0.003 A 
ATOM     19  C   UNL     1     -14.236   0.583  -5.765  0.00  0.00    -0.049 A 
ATOM     20  C   UNL     1     -14.182   1.117  -7.164  0.00  0.00    +0.044 C 
ATOM     21  C   UNL     1     -14.491  -0.759  -5.438  0.00  0.00    +0.026 A 
ENDBRANCH  13  15
ENDBRANCH  11  13
BRANCH  12  22
ATOM     22  C   UNL     1     -17.430  -3.064  -3.047  0.00  0.00    +0.121 C 
BRANCH  22  23
ATOM     23  N   UNL     1     -18.547  -2.723  -3.914  0.00  0.00    -0.326 NA
ATOM     24  H   UNL     1     -18.410  -3.150  -4.830  0.00  0.00    +0.119 HD
ATOM     25  H   UNL     1     -19.413  -3.072  -3.503  0.00  0.00    +0.119 HD
ENDBRANCH  22  23
ENDBRANCH  12  22
TORSDOF 4
ENDMDL
MODEL 3
REMARK VINA RESULT:      -7.0      1.461      1.592
REMARK  Name = min_compound912.pdb
REMARK  5 active torsions:
REMARK  status: ('A' for Active; 'I' for Inactive)
REMARK    1  A    between atoms: _2  and  _19
REMARK    2  A    between atoms: _4  and  _21
REMARK    3  A    between atoms: _12  and  _21
REMARK    4  A    between atoms: _16  and  _22
REMARK    5  A    between atoms: _19  and  _20
REMARK                            x       y       z     vdW  Elec       q    Type
REMARK                         _______ _______ _______ _____ _____    ______ ____
ROOT
ATOM      1  O   UNL     1     -12.856   4.505 -19.537  0.00  0.00    -0.270 OA
ATOM      2  C   UNL     1     -12.950   3.931 -18.454  0.00  0.00    +0.245 C 
ATOM      3  N   UNL     1     -12.495   2.654 -18.346  0.00  0.00    -0.297 N 
ATOM      4  H   UNL     1     -12.034   2.324 -19.184  0.00  0.00    +0.150 HD
ATOM      5  C   UNL     1     -12.251   1.976 -17.099  0.00  0.00    +0.087 C 
ATOM      6  C   UNL     1     -12.002   0.463 -17.326  0.00  0.00    +0.037 C 
ATOM      7  C   UNL     1     -10.558   0.209 -16.899  0.00  0.00    +0.003 C 
ATOM      8  C   UNL     1     -10.308   1.251 -15.826  0.00  0.00    +0.003 C 
ATOM      9  C   UNL     1     -10.966   2.491 -16.412  0.00  0.00    +0.037 C 
ATOM     10  S   UNL     1     -13.731   2.187 -16.065  0.00  0.00    -0.084 S 
ATOM     11  C   UNL     1     -13.885   3.955 -16.109  0.00  0.00    +0.077 C 
ATOM     12  C   UNL     1     -13.529   4.608 -17.247  0.00  0.00    +0.055 C 
ENDROOT
BRANCH  11  13
ATOM     13  N   UNL     1     -14.486   4.632 -15.033  0.00  0.00    -0.309 N 
ATOM     14  H   UNL     1     -13.882   5.334 -14.612  0.00  0.00    +0.153 HD
BRANCH  13  15
ATOM     15  C   UNL     1     -15.357   4.104 -14.047  0.00  0.00    +0.032 A 
ATOM     16  C   UNL     1     -16.384   3.191 -14.311  0.00  0.00    +0.023 A 
ATOM     17  C   UNL     1     -17.223   2.730 -13.294  0.00  0.00    +0.002 A 
ATOM     18  C   UNL     1     -17.056   3.186 -11.993  0.00  0.00    +0.003 A 
ATOM     19  C   UNL     1     -16.056   4.119 -11.694  0.00  0.00    -0.049 A 
ATOM     20  C   UNL     1     -15.951   4.558 -10.264  0.00  0.00    +0.044 C 
ATOM     21  C   UNL     1     -15.225   4.581 -12.727  0.00  0.00    +0.026 A 
ENDBRANCH  13  15
ENDBRANCH  11  13
BRANCH  12  22
ATOM     22  C   UNL     1     -13.703   6.026 -17.352  0.00  0.00    +0.121 C 
BRANCH  22  23
ATOM     23  N   UNL     1     -13.894   7.465 -17.446  0.00  0.00    -0.326 NA
ATOM     24  H   UNL     1     -14.891   7.679 -17.403  0.00  0.00    +0.119 HD
ATOM     25  H   UNL     1     -13.414   7.923 -16.672  0.00  0.00    +0.119 HD
ENDBRANCH  22  23
ENDBRANCH  12  22
TORSDOF 4
ENDMDL
MODEL 4
REMARK VINA RESULT:      -6.9      1.908      5.641
REMARK  Name = min_compound912.pdb
REMARK  5 active torsions:
REMARK  status: ('A' for Active; 'I' for Inactive)
REMARK    1  A    between atoms: _2  and  _19
REMARK    2  A    between atoms: _4  and  _21
REMARK    3  A    between atoms: _12  and  _21
REMARK    4  A    between atoms: _16  and  _22
REMARK    5  A    between atoms: _19  and  _20
REMARK                            x       y       z     vdW  Elec       q    Type
REMARK                         _______ _______ _______ _____ _____    ______ ____
ROOT
ATOM      1  O   UNL     1     -16.128   3.825 -19.950  0.00  0.00    -0.270 OA
ATOM      2  C   UNL     1     -15.397   3.733 -18.965  0.00  0.00    +0.245 C 
ATOM      3  N   UNL     1     -15.825   4.245 -17.780  0.00  0.00    -0.297 N 
ATOM      4  H   UNL     1     -16.775   4.591 -17.817  0.00  0.00    +0.150 HD
ATOM      5  C   UNL     1     -15.238   3.942 -16.500  0.00  0.00    +0.087 C 
ATOM      6  C   UNL     1     -15.781   4.889 -15.400  0.00  0.00    +0.037 C 
ATOM      7  C   UNL     1     -16.555   4.001 -14.429  0.00  0.00    +0.003 C 
ATOM      8  C   UNL     1     -15.854   2.660 -14.526  0.00  0.00    +0.003 C 
ATOM      9  C   UNL     1     -15.614   2.521 -16.022  0.00  0.00    +0.037 C 
ATOM     10  S   UNL     1     -13.442   4.177 -16.655  0.00  0.00    -0.084 S 
ATOM     11  C   UNL     1     -13.117   3.138 -18.057  0.00  0.00    +0.077 C 
ATOM     12  C   UNL     1     -14.062   3.052 -19.032  0.00  0.00    +0.055 C 
ENDROOT
BRANCH  11  13
ATOM     13  N   UNL     1     -11.857   2.534 -18.203  0.00  0.00    -0.309 N 
ATOM     14  H   UNL     1     -11.530   2.514 -19.166  0.00  0.00    +0.153 HD
BRANCH  13  15
ATOM     15  C   UNL     1     -11.340   1.414 -17.505  0.00  0.00    +0.032 A 
ATOM     16  C   UNL     1      -9.977   1.119 -17.389  0.00  0.00    +0.023 A 
ATOM     17  C   UNL     1      -9.536  -0.016 -16.706  0.00  0.00    +0.002 A 
ATOM     18  C   UNL     1     -10.456  -0.886 -16.136  0.00  0.00    +0.003 A 
ATOM     19  C   UNL     1     -11.828  -0.640 -16.252  0.00  0.00    -0.049 A 
ATOM     20  C   UNL     1     -12.748  -1.634 -15.609  0.00  0.00    +0.044 C 
ATOM     21  C   UNL     1     -12.258   0.501 -16.948  0.00  0.00    +0.026 A 
ENDBRANCH  13  15
ENDBRANCH  11  13
BRANCH  12  22
ATOM     22  C   UNL     1     -13.814   2.282 -20.214  0.00  0.00    +0.121 C 
BRANCH  22  23
ATOM     23  N   UNL     1     -13.549   1.514 -21.420  0.00  0.00    -0.326 NA
ATOM     24  H   UNL     1     -13.572   0.517 -21.200  0.00  0.00    +0.119 HD
ATOM     25  H   UNL     1     -14.259   1.724 -22.120  0.00  0.00    +0.119 HD
ENDBRANCH  22  23
ENDBRANCH  12  22
TORSDOF 4
ENDMDL
MODEL 5
REMARK VINA RESULT:      -6.7      2.767      5.981
REMARK  Name = min_compound912.pdb
REMARK  5 active torsions:
REMARK  status: ('A' for Active; 'I' for Inactive)
REMARK    1  A    between atoms: _2  and  _19
REMARK    2  A    between atoms: _4  and  _21
REMARK    3  A    between atoms: _12  and  _21
REMARK    4  A    between atoms: _16  and  _22
REMARK    5  A    between atoms: _19  and  _20
REMARK                            x       y       z     vdW  Elec       q    Type
REMARK                         _______ _______ _______ _____ _____    ______ ____
ROOT
ATOM      1  O   UNL     1     -14.190   3.625 -14.773  0.00  0.00    -0.270 OA
ATOM      2  C   UNL     1     -13.641   3.100 -15.740  0.00  0.00    +0.245 C 
ATOM      3  N   UNL     1     -12.391   2.585 -15.587  0.00  0.00    -0.297 N 
ATOM      4  H   UNL     1     -12.063   2.617 -14.630  0.00  0.00    +0.150 HD
ATOM      5  C   UNL     1     -11.761   1.680 -16.513  0.00  0.00    +0.087 C 
ATOM      6  C   UNL     1     -10.257   1.503 -16.183  0.00  0.00    +0.037 C 
ATOM      7  C   UNL     1     -10.087   0.040 -15.781  0.00  0.00    +0.003 C 
ATOM      8  C   UNL     1     -11.169  -0.679 -16.564  0.00  0.00    +0.003 C 
ATOM      9  C   UNL     1     -12.358   0.258 -16.419  0.00  0.00    +0.037 C 
ATOM     10  S   UNL     1     -11.925   2.401 -18.174  0.00  0.00    -0.084 S 
ATOM     11  C   UNL     1     -13.681   2.655 -18.226  0.00  0.00    +0.077 C 
ATOM     12  C   UNL     1     -14.320   2.992 -17.073  0.00  0.00    +0.055 C 
ENDROOT
BRANCH  11  13
ATOM     13  N   UNL     1     -14.355   2.635 -19.458  0.00  0.00    -0.309 N 
ATOM     14  H   UNL     1     -15.111   1.955 -19.492  0.00  0.00    +0.153 HD
BRANCH  13  15
ATOM     15  C   UNL     1     -13.808   2.798 -20.756  0.00  0.00    +0.032 A 
ATOM     16  C   UNL     1     -13.450   1.739 -21.598  0.00  0.00    +0.023 A 
ATOM     17  C   UNL     1     -12.892   1.970 -22.856  0.00  0.00    +0.002 A 
ATOM     18  C   UNL     1     -12.669   3.271 -23.291  0.00  0.00    +0.003 A 
ATOM     19  C   UNL     1     -12.991   4.356 -22.468  0.00  0.00    -0.049 A 
ATOM     20  C   UNL     1     -12.713   5.723 -23.017  0.00  0.00    +0.044 C 
ATOM     21  C   UNL     1     -13.544   4.108 -21.201  0.00  0.00    +0.026 A 
ENDBRANCH  13  15
ENDBRANCH  11  13
BRANCH  12  22
ATOM     22  C   UNL     1     -15.724   3.275 -17.081  0.00  0.00    +0.121 C 
BRANCH  22  23
ATOM     23  N   UNL     1     -17.149   3.567 -17.070  0.00  0.00    -0.326 NA
ATOM     24  H   UNL     1     -17.417   3.915 -16.149  0.00  0.00    +0.119 HD
ATOM     25  H   UNL     1     -17.356   4.275 -17.774  0.00  0.00    +0.119 HD
ENDBRANCH  22  23
ENDBRANCH  12  22
TORSDOF 4
ENDMDL
MODEL 6
REMARK VINA RESULT:      -6.6      3.255      6.034
REMARK  Name = min_compound912.pdb
REMARK  5 active torsions:
REMARK  status: ('A' for Active; 'I' for Inactive)
REMARK    1  A    between atoms: _2  and  _19
REMARK    2  A    between atoms: _4  and  _21
REMARK    3  A    between atoms: _12  and  _21
REMARK    4  A    between atoms: _16  and  _22
REMARK    5  A    between atoms: _19  and  _20
REMARK                            x       y       z     vdW  Elec       q    Type
REMARK                         _______ _______ _______ _____ _____    ______ ____
ROOT
ATOM      1  O   UNL     1     -14.652   3.767 -14.734  0.00  0.00    -0.270 OA
ATOM      2  C   UNL     1     -13.659   3.834 -15.456  0.00  0.00    +0.245 C 
ATOM      3  N   UNL     1     -12.690   2.887 -15.331  0.00  0.00    -0.297 N 
ATOM      4  H   UNL     1     -12.938   2.149 -14.684  0.00  0.00    +0.150 HD
ATOM      5  C   UNL     1     -11.648   2.653 -16.295  0.00  0.00    +0.087 C 
ATOM      6  C   UNL     1     -10.566   1.700 -15.726  0.00  0.00    +0.037 C 
ATOM      7  C   UNL     1     -10.628   0.438 -16.583  0.00  0.00    +0.003 C 
ATOM      8  C   UNL     1     -11.100   0.940 -17.934  0.00  0.00    +0.003 C 
ATOM      9  C   UNL     1     -12.185   1.937 -17.555  0.00  0.00    +0.037 C 
ATOM     10  S   UNL     1     -10.885   4.259 -16.674  0.00  0.00    -0.084 S 
ATOM     11  C   UNL     1     -12.331   5.185 -17.126  0.00  0.00    +0.077 C 
ATOM     12  C   UNL     1     -13.499   4.915 -16.484  0.00  0.00    +0.055 C 
ENDROOT
BRANCH  11  13
ATOM     13  N   UNL     1     -12.223   6.254 -18.031  0.00  0.00    -0.309 N 
ATOM     14  H   UNL     1     -12.704   7.095 -17.720  0.00  0.00    +0.153 HD
BRANCH  13  15
ATOM     15  C   UNL     1     -12.229   6.203 -19.448  0.00  0.00    +0.032 A 
ATOM     16  C   UNL     1     -12.872   5.212 -20.197  0.00  0.00    +0.023 A 
ATOM     17  C   UNL     1     -12.818   5.208 -21.592  0.00  0.00    +0.002 A 
ATOM     18  C   UNL     1     -12.106   6.193 -22.264  0.00  0.00    +0.003 A 
ATOM     19  C   UNL     1     -11.429   7.188 -21.550  0.00  0.00    -0.049 A 
ATOM     20  C   UNL     1     -10.684   8.208 -22.357  0.00  0.00    +0.044 C 
ATOM     21  C   UNL     1     -11.485   7.175 -20.146  0.00  0.00    +0.026 A 
ENDBRANCH  13  15
ENDBRANCH  11  13
BRANCH  12  22
ATOM     22  C   UNL     1     -14.674   5.685 -16.765  0.00  0.00    +0.121 C 
BRANCH  22  23
ATOM     23  N   UNL     1     -15.856   6.478 -17.063  0.00  0.00    -0.326 NA
ATOM     24  H   UNL     1     -16.686   5.993 -16.721  0.00  0.00    +0.119 HD
ATOM     25  H   UNL     1     -15.780   7.386 -16.604  0.00  0.00    +0.119 HD
ENDBRANCH  22  23
ENDBRANCH  12  22
TORSDOF 4
ENDMDL
MODEL 7
REMARK VINA RESULT:      -6.6      2.251      6.211
REMARK  Name = min_compound912.pdb
REMARK  5 active torsions:
REMARK  status: ('A' for Active; 'I' for Inactive)
REMARK    1  A    between atoms: _2  and  _19
REMARK    2  A    between atoms: _4  and  _21
REMARK    3  A    between atoms: _12  and  _21
REMARK    4  A    between atoms: _16  and  _22
REMARK    5  A    between atoms: _19  and  _20
REMARK                            x       y       z     vdW  Elec       q    Type
REMARK                         _______ _______ _______ _____ _____    ______ ____
ROOT
ATOM      1  O   UNL     1     -17.005   6.167 -16.917  0.00  0.00    -0.270 OA
ATOM      2  C   UNL     1     -16.408   5.339 -16.232  0.00  0.00    +0.245 C 
ATOM      3  N   UNL     1     -16.408   5.483 -14.879  0.00  0.00    -0.297 N 
ATOM      4  H   UNL     1     -16.994   6.245 -14.561  0.00  0.00    +0.150 HD
ATOM      5  C   UNL     1     -16.035   4.451 -13.948  0.00  0.00    +0.087 C 
ATOM      6  C   UNL     1     -15.887   5.021 -12.514  0.00  0.00    +0.037 C 
ATOM      7  C   UNL     1     -16.979   4.350 -11.683  0.00  0.00    +0.003 C 
ATOM      8  C   UNL     1     -17.170   3.003 -12.355  0.00  0.00    +0.003 C 
ATOM      9  C   UNL     1     -17.126   3.363 -13.833  0.00  0.00    +0.037 C 
ATOM     10  S   UNL     1     -14.434   3.782 -14.490  0.00  0.00    -0.084 S 
ATOM     11  C   UNL     1     -14.827   3.371 -16.172  0.00  0.00    +0.077 C 
ATOM     12  C   UNL     1     -15.702   4.167 -16.845  0.00  0.00    +0.055 C 
ENDROOT
BRANCH  11  13
ATOM     13  N   UNL     1     -14.143   2.326 -16.815  0.00  0.00    -0.309 N 
ATOM     14  H   UNL     1     -14.637   1.438 -16.777  0.00  0.00    +0.153 HD
BRANCH  13  15
ATOM     15  C   UNL     1     -12.746   2.088 -16.850  0.00  0.00    +0.032 A 
ATOM     16  C   UNL     1     -11.789   3.061 -17.159  0.00  0.00    +0.023 A 
ATOM     17  C   UNL     1     -10.428   2.752 -17.199  0.00  0.00    +0.002 A 
ATOM     18  C   UNL     1     -10.000   1.456 -16.941  0.00  0.00    +0.003 A 
ATOM     19  C   UNL     1     -10.928   0.449 -16.652  0.00  0.00    -0.049 A 
ATOM     20  C   UNL     1     -10.378  -0.920 -16.391  0.00  0.00    +0.044 C 
ATOM     21  C   UNL     1     -12.295   0.772 -16.624  0.00  0.00    +0.026 A 
ENDBRANCH  13  15
ENDBRANCH  11  13
BRANCH  12  22
ATOM     22  C   UNL     1     -15.994   3.915 -18.224  0.00  0.00    +0.121 C 
BRANCH  22  23
ATOM     23  N   UNL     1     -16.300   3.677 -19.626  0.00  0.00    -0.326 NA
ATOM     24  H   UNL     1     -16.184   4.544 -20.151  0.00  0.00    +0.119 HD
ATOM     25  H   UNL     1     -15.668   2.968 -19.996  0.00  0.00    +0.119 HD
ENDBRANCH  22  23
ENDBRANCH  12  22
TORSDOF 4
ENDMDL
MODEL 8
REMARK VINA RESULT:      -6.5      0.764      1.615
REMARK  Name = min_compound912.pdb
REMARK  5 active torsions:
REMARK  status: ('A' for Active; 'I' for Inactive)
REMARK    1  A    between atoms: _2  and  _19
REMARK    2  A    between atoms: _4  and  _21
REMARK    3  A    between atoms: _12  and  _21
REMARK    4  A    between atoms: _16  and  _22
REMARK    5  A    between atoms: _19  and  _20
REMARK                            x       y       z     vdW  Elec       q    Type
REMARK                         _______ _______ _______ _____ _____    ______ ____
ROOT
ATOM      1  O   UNL     1     -13.291   2.394 -20.454  0.00  0.00    -0.270 OA
ATOM      2  C   UNL     1     -13.183   2.331 -19.231  0.00  0.00    +0.245 C 
ATOM      3  N   UNL     1     -12.559   1.254 -18.682  0.00  0.00    -0.297 N 
ATOM      4  H   UNL     1     -12.161   0.630 -19.373  0.00  0.00    +0.150 HD
ATOM      5  C   UNL     1     -12.084   1.189 -17.324  0.00  0.00    +0.087 C 
ATOM      6  C   UNL     1     -11.672  -0.257 -16.946  0.00  0.00    +0.037 C 
ATOM      7  C   UNL     1     -10.168  -0.210 -16.691  0.00  0.00    +0.003 C 
ATOM      8  C   UNL     1      -9.928   1.204 -16.197  0.00  0.00    +0.003 C 
ATOM      9  C   UNL     1     -10.804   2.031 -17.126  0.00  0.00    +0.037 C 
ATOM     10  S   UNL     1     -13.447   1.721 -16.245  0.00  0.00    -0.084 S 
ATOM     11  C   UNL     1     -13.830   3.288 -16.986  0.00  0.00    +0.077 C 
ATOM     12  C   UNL     1     -13.697   3.417 -18.333  0.00  0.00    +0.055 C 
ENDROOT
BRANCH  11  13
ATOM     13  N   UNL     1     -14.381   4.316 -16.203  0.00  0.00    -0.309 N 
ATOM     14  H   UNL     1     -13.755   5.109 -16.081  0.00  0.00    +0.153 HD
BRANCH  13  15
ATOM     15  C   UNL     1     -15.215   4.194 -15.063  0.00  0.00    +0.032 A 
ATOM     16  C   UNL     1     -14.778   4.368 -13.745  0.00  0.00    +0.023 A 
ATOM     17  C   UNL     1     -15.648   4.208 -12.665  0.00  0.00    +0.002 A 
ATOM     18  C   UNL     1     -16.974   3.858 -12.886  0.00  0.00    +0.003 A 
ATOM     19  C   UNL     1     -17.443   3.651 -14.187  0.00  0.00    -0.049 A 
ATOM     20  C   UNL     1     -18.887   3.273 -14.331  0.00  0.00    +0.044 C 
ATOM     21  C   UNL     1     -16.555   3.807 -15.264  0.00  0.00    +0.026 A 
ENDBRANCH  13  15
ENDBRANCH  11  13
BRANCH  12  22
ATOM     22  C   UNL     1     -14.062   4.640 -18.982  0.00  0.00    +0.121 C 
BRANCH  22  23
ATOM     23  N   UNL     1     -14.420   5.878 -19.656  0.00  0.00    -0.326 NA
ATOM     24  H   UNL     1     -15.095   5.680 -20.395  0.00  0.00    +0.119 HD
ATOM     25  H   UNL     1     -14.832   6.524 -18.984  0.00  0.00    +0.119 HD
ENDBRANCH  22  23
ENDBRANCH  12  22
TORSDOF 4
ENDMDL
MODEL 9
REMARK VINA RESULT:      -6.5      8.336     11.167
REMARK  Name = min_compound912.pdb
REMARK  5 active torsions:
REMARK  status: ('A' for Active; 'I' for Inactive)
REMARK    1  A    between atoms: _2  and  _19
REMARK    2  A    between atoms: _4  and  _21
REMARK    3  A    between atoms: _12  and  _21
REMARK    4  A    between atoms: _16  and  _22
REMARK    5  A    between atoms: _19  and  _20
REMARK                            x       y       z     vdW  Elec       q    Type
REMARK                         _______ _______ _______ _____ _____    ______ ____
ROOT
ATOM      1  O   UNL     1     -18.439   6.800  -6.961  0.00  0.00    -0.270 OA
ATOM      2  C   UNL     1     -18.359   5.611  -7.261  0.00  0.00    +0.245 C 
ATOM      3  N   UNL     1     -18.777   5.214  -8.493  0.00  0.00    -0.297 N 
ATOM      4  H   UNL     1     -19.047   5.987  -9.088  0.00  0.00    +0.150 HD
ATOM      5  C   UNL     1     -18.461   3.944  -9.093  0.00  0.00    +0.087 C 
ATOM      6  C   UNL     1     -19.308   3.705 -10.369  0.00  0.00    +0.037 C 
ATOM      7  C   UNL     1     -18.314   3.666 -11.529  0.00  0.00    +0.003 C 
ATOM      8  C   UNL     1     -17.040   3.139 -10.897  0.00  0.00    +0.003 C 
ATOM      9  C   UNL     1     -16.994   3.889  -9.574  0.00  0.00    +0.037 C 
ATOM     10  S   UNL     1     -18.848   2.654  -7.872  0.00  0.00    -0.084 S 
ATOM     11  C   UNL     1     -17.907   3.249  -6.489  0.00  0.00    +0.077 C 
ATOM     12  C   UNL     1     -17.792   4.593  -6.316  0.00  0.00    +0.055 C 
ENDROOT
BRANCH  11  13
ATOM     13  N   UNL     1     -17.414   2.343  -5.536  0.00  0.00    -0.309 N 
ATOM     14  H   UNL     1     -17.641   2.602  -4.579  0.00  0.00    +0.153 HD
BRANCH  13  15
ATOM     15  C   UNL     1     -16.184   1.638  -5.555  0.00  0.00    +0.032 A 
ATOM     16  C   UNL     1     -15.766   0.812  -6.605  0.00  0.00    +0.023 A 
ATOM     17  C   UNL     1     -14.551   0.127  -6.548  0.00  0.00    +0.002 A 
ATOM     18  C   UNL     1     -13.736   0.247  -5.430  0.00  0.00    +0.003 A 
ATOM     19  C   UNL     1     -14.130   1.043  -4.349  0.00  0.00    -0.049 A 
ATOM     20  C   UNL     1     -13.189   1.111  -3.184  0.00  0.00    +0.044 C 
ATOM     21  C   UNL     1     -15.359   1.720  -4.416  0.00  0.00    +0.026 A 
ENDBRANCH  13  15
ENDBRANCH  11  13
BRANCH  12  22
ATOM     22  C   UNL     1     -17.103   5.119  -5.176  0.00  0.00    +0.121 C 
BRANCH  22  23
ATOM     23  N   UNL     1     -16.417   5.666  -4.015  0.00  0.00    -0.326 NA
ATOM     24  H   UNL     1     -16.488   6.684  -4.027  0.00  0.00    +0.119 HD
ATOM     25  H   UNL     1     -16.848   5.305  -3.165  0.00  0.00    +0.119 HD
ENDBRANCH  22  23
ENDBRANCH  12  22
TORSDOF 4
ENDMDL
