MODEL 1
REMARK VINA RESULT:      -6.3      0.000      0.000
REMARK  Name = min_compound958.pdb
REMARK  8 active torsions:
REMARK  status: ('A' for Active; 'I' for Inactive)
REMARK    1  A    between atoms: _8  and  _15
REMARK    2  A    between atoms: _9  and  _10
REMARK    3  A    between atoms: _10  and  _12
REMARK    4  A    between atoms: _12  and  _16
REMARK    5  A    between atoms: _14  and  _15
REMARK    6  A    between atoms: _14  and  _18
REMARK    7  A    between atoms: _16  and  _17
REMARK    8  A    between atoms: _18  and  _19
REMARK                            x       y       z     vdW  Elec       q    Type
REMARK                         _______ _______ _______ _____ _____    ______ ____
ROOT
ATOM      1  C   UNL     1      -9.461  -0.148 -17.396  0.00  0.00    +0.005 C 
ATOM      2  C   UNL     1      -9.985  -0.948 -16.240  0.00  0.00    +0.005 C 
ATOM      3  C   UNL     1     -11.618  -0.692 -16.541  0.00  0.00    +0.042 C 
ATOM      4  C   UNL     1     -11.978   0.767 -16.524  0.00  0.00    -0.013 C 
ATOM      5  S   UNL     1     -13.553   1.393 -16.276  0.00  0.00    -0.106 S 
ATOM      6  C   UNL     1     -12.909   2.953 -15.878  0.00  0.00    +0.152 C 
ATOM      7  C   UNL     1     -11.669   3.087 -16.520  0.00  0.00    +0.155 C 
ATOM      8  C   UNL     1     -11.084   1.771 -16.798  0.00  0.00    -0.044 C 
ATOM      9  C   UNL     1      -9.688   1.409 -17.264  0.00  0.00    +0.032 C 
ENDROOT
BRANCH   6  10
ATOM     10  N   UNL     1     -13.726   3.922 -15.248  0.00  0.00    -0.313 N 
ATOM     11  H   UNL     1     -13.206   4.526 -14.615  0.00  0.00    +0.149 HD
BRANCH  10  12
ATOM     12  C   UNL     1     -15.096   4.027 -15.003  0.00  0.00    +0.131 C 
ATOM     13  S   UNL     1     -16.059   4.682 -16.205  0.00  0.00    -0.019 S 
BRANCH  12  14
ATOM     14  N   UNL     1     -15.682   3.739 -13.787  0.00  0.00    -0.330 N 
ATOM     15  H   UNL     1     -15.407   4.206 -12.931  0.00  0.00    +0.147 HD
ATOM     16  C   UNL     1     -16.745   2.686 -13.889  0.00  0.00    +0.127 C 
ENDBRANCH  12  14
ENDBRANCH  10  12
ENDBRANCH   6  10
BRANCH   7  17
ATOM     17  C   UNL     1     -10.994   4.355 -16.779  0.00  0.00    +0.317 C 
ATOM     18  O   UNL     1     -10.034   4.750 -16.129  0.00  0.00    -0.250 OA
BRANCH  17  19
ATOM     19  O   UNL     1     -11.484   4.989 -17.886  0.00  0.00    -0.464 OA
BRANCH  19  20
ATOM     20  C   UNL     1     -12.159   6.231 -17.639  0.00  0.00    +0.229 C 
ATOM     21  C   UNL     1     -11.866   7.224 -18.753  0.00  0.00    +0.048 C 
ENDBRANCH  19  20
ENDBRANCH  17  19
ENDBRANCH   7  17
TORSDOF 6
ENDMDL
MODEL 2
REMARK VINA RESULT:      -6.3      3.087      4.305
REMARK  Name = min_compound958.pdb
REMARK  8 active torsions:
REMARK  status: ('A' for Active; 'I' for Inactive)
REMARK    1  A    between atoms: _8  and  _15
REMARK    2  A    between atoms: _9  and  _10
REMARK    3  A    between atoms: _10  and  _12
REMARK    4  A    between atoms: _12  and  _16
REMARK    5  A    between atoms: _14  and  _15
REMARK    6  A    between atoms: _14  and  _18
REMARK    7  A    between atoms: _16  and  _17
REMARK    8  A    between atoms: _18  and  _19
REMARK                            x       y       z     vdW  Elec       q    Type
REMARK                         _______ _______ _______ _____ _____    ______ ____
ROOT
ATOM      1  C   UNL     1     -11.350  -0.973 -16.028  0.00  0.00    +0.005 C 
ATOM      2  C   UNL     1      -9.881  -0.671 -15.975  0.00  0.00    +0.005 C 
ATOM      3  C   UNL     1     -10.010   0.828 -15.226  0.00  0.00    +0.042 C 
ATOM      4  C   UNL     1     -10.833   1.796 -16.028  0.00  0.00    -0.013 C 
ATOM      5  S   UNL     1     -10.773   3.502 -15.882  0.00  0.00    -0.106 S 
ATOM      6  C   UNL     1     -11.523   3.697 -17.434  0.00  0.00    +0.152 C 
ATOM      7  C   UNL     1     -12.300   2.556 -17.685  0.00  0.00    +0.155 C 
ATOM      8  C   UNL     1     -11.803   1.410 -16.918  0.00  0.00    -0.044 C 
ATOM      9  C   UNL     1     -12.165  -0.058 -17.023  0.00  0.00    +0.032 C 
ENDROOT
BRANCH   6  10
ATOM     10  N   UNL     1     -11.497   4.953 -18.084  0.00  0.00    -0.313 N 
ATOM     11  H   UNL     1     -10.626   5.122 -18.583  0.00  0.00    +0.149 HD
BRANCH  10  12
ATOM     12  C   UNL     1     -12.204   6.145 -17.923  0.00  0.00    +0.131 C 
ATOM     13  S   UNL     1     -13.652   6.093 -17.085  0.00  0.00    -0.019 S 
BRANCH  12  14
ATOM     14  N   UNL     1     -11.841   7.337 -18.518  0.00  0.00    -0.330 N 
ATOM     15  H   UNL     1     -11.786   8.205 -17.998  0.00  0.00    +0.147 HD
ATOM     16  C   UNL     1     -11.545   7.190 -19.981  0.00  0.00    +0.127 C 
ENDBRANCH  12  14
ENDBRANCH  10  12
ENDBRANCH   6  10
BRANCH   7  17
ATOM     17  C   UNL     1     -13.385   2.482 -18.659  0.00  0.00    +0.317 C 
ATOM     18  O   UNL     1     -14.502   2.942 -18.457  0.00  0.00    -0.250 OA
BRANCH  17  19
ATOM     19  O   UNL     1     -12.980   1.944 -19.849  0.00  0.00    -0.464 OA
BRANCH  19  20
ATOM     20  C   UNL     1     -13.536   2.552 -21.023  0.00  0.00    +0.229 C 
ATOM     21  C   UNL     1     -13.459   1.595 -22.203  0.00  0.00    +0.048 C 
ENDBRANCH  19  20
ENDBRANCH  17  19
ENDBRANCH   7  17
TORSDOF 6
ENDMDL
MODEL 3
REMARK VINA RESULT:      -6.1      2.534      4.407
REMARK  Name = min_compound958.pdb
REMARK  8 active torsions:
REMARK  status: ('A' for Active; 'I' for Inactive)
REMARK    1  A    between atoms: _8  and  _15
REMARK    2  A    between atoms: _9  and  _10
REMARK    3  A    between atoms: _10  and  _12
REMARK    4  A    between atoms: _12  and  _16
REMARK    5  A    between atoms: _14  and  _15
REMARK    6  A    between atoms: _14  and  _18
REMARK    7  A    between atoms: _16  and  _17
REMARK    8  A    between atoms: _18  and  _19
REMARK                            x       y       z     vdW  Elec       q    Type
REMARK                         _______ _______ _______ _____ _____    ______ ____
ROOT
ATOM      1  C   UNL     1     -11.819  -0.686 -16.260  0.00  0.00    +0.005 C 
ATOM      2  C   UNL     1     -10.420  -0.534 -16.779  0.00  0.00    +0.005 C 
ATOM      3  C   UNL     1      -9.999   0.795 -15.840  0.00  0.00    +0.042 C 
ATOM      4  C   UNL     1     -10.903   1.971 -16.082  0.00  0.00    -0.013 C 
ATOM      5  S   UNL     1     -10.515   3.603 -15.734  0.00  0.00    -0.106 S 
ATOM      6  C   UNL     1     -11.771   4.165 -16.789  0.00  0.00    +0.152 C 
ATOM      7  C   UNL     1     -12.758   3.170 -16.854  0.00  0.00    +0.155 C 
ATOM      8  C   UNL     1     -12.193   1.856 -16.534  0.00  0.00    -0.044 C 
ATOM      9  C   UNL     1     -12.800   0.475 -16.686  0.00  0.00    +0.032 C 
ENDROOT
BRANCH   6  10
ATOM     10  N   UNL     1     -11.801   5.517 -17.205  0.00  0.00    -0.313 N 
ATOM     11  H   UNL     1     -11.594   6.167 -16.451  0.00  0.00    +0.149 HD
BRANCH  10  12
ATOM     12  C   UNL     1     -12.381   6.189 -18.281  0.00  0.00    +0.131 C 
ATOM     13  S   UNL     1     -13.622   7.265 -17.958  0.00  0.00    -0.019 S 
BRANCH  12  14
ATOM     14  N   UNL     1     -12.077   5.929 -19.602  0.00  0.00    -0.330 N 
ATOM     15  H   UNL     1     -12.252   5.027 -20.029  0.00  0.00    +0.147 HD
ATOM     16  C   UNL     1     -11.477   7.111 -20.305  0.00  0.00    +0.127 C 
ENDBRANCH  12  14
ENDBRANCH  10  12
ENDBRANCH   6  10
BRANCH   7  17
ATOM     17  C   UNL     1     -14.136   3.386 -17.288  0.00  0.00    +0.317 C 
ATOM     18  O   UNL     1     -14.580   2.960 -18.346  0.00  0.00    -0.250 OA
BRANCH  17  19
ATOM     19  O   UNL     1     -14.888   4.017 -16.337  0.00  0.00    -0.464 OA
BRANCH  19  20
ATOM     20  C   UNL     1     -14.991   3.335 -15.079  0.00  0.00    +0.229 C 
ATOM     21  C   UNL     1     -16.034   2.231 -15.159  0.00  0.00    +0.048 C 
ENDBRANCH  19  20
ENDBRANCH  17  19
ENDBRANCH   7  17
TORSDOF 6
ENDMDL
MODEL 4
REMARK VINA RESULT:      -5.5      3.104      3.612
REMARK  Name = min_compound958.pdb
REMARK  8 active torsions:
REMARK  status: ('A' for Active; 'I' for Inactive)
REMARK    1  A    between atoms: _8  and  _15
REMARK    2  A    between atoms: _9  and  _10
REMARK    3  A    between atoms: _10  and  _12
REMARK    4  A    between atoms: _12  and  _16
REMARK    5  A    between atoms: _14  and  _15
REMARK    6  A    between atoms: _14  and  _18
REMARK    7  A    between atoms: _16  and  _17
REMARK    8  A    between atoms: _18  and  _19
REMARK                            x       y       z     vdW  Elec       q    Type
REMARK                         _______ _______ _______ _____ _____    ______ ____
ROOT
ATOM      1  C   UNL     1     -10.208   0.948 -15.751  0.00  0.00    +0.005 C 
ATOM      2  C   UNL     1     -10.770  -0.334 -16.291  0.00  0.00    +0.005 C 
ATOM      3  C   UNL     1     -11.049   0.212 -17.856  0.00  0.00    +0.042 C 
ATOM      4  C   UNL     1     -11.986   1.386 -17.890  0.00  0.00    -0.013 C 
ATOM      5  S   UNL     1     -12.896   1.883 -19.254  0.00  0.00    -0.106 S 
ATOM      6  C   UNL     1     -13.966   2.806 -18.248  0.00  0.00    +0.152 C 
ATOM      7  C   UNL     1     -13.260   3.180 -17.095  0.00  0.00    +0.155 C 
ATOM      8  C   UNL     1     -12.150   2.256 -16.842  0.00  0.00    -0.044 C 
ATOM      9  C   UNL     1     -11.262   2.117 -15.623  0.00  0.00    +0.032 C 
ENDROOT
BRANCH   6  10
ATOM     10  N   UNL     1     -15.203   3.266 -18.757  0.00  0.00    -0.313 N 
ATOM     11  H   UNL     1     -16.003   2.832 -18.301  0.00  0.00    +0.149 HD
BRANCH  10  12
ATOM     12  C   UNL     1     -15.597   3.882 -19.946  0.00  0.00    +0.131 C 
ATOM     13  S   UNL     1     -15.682   5.553 -19.973  0.00  0.00    -0.019 S 
BRANCH  12  14
ATOM     14  N   UNL     1     -16.036   3.192 -21.057  0.00  0.00    -0.330 N 
ATOM     15  H   UNL     1     -16.898   2.659 -21.057  0.00  0.00    +0.147 HD
ATOM     16  C   UNL     1     -15.110   3.328 -22.230  0.00  0.00    +0.127 C 
ENDBRANCH  12  14
ENDBRANCH  10  12
ENDBRANCH   6  10
BRANCH   7  17
ATOM     17  C   UNL     1     -13.638   4.270 -16.200  0.00  0.00    +0.317 C 
ATOM     18  O   UNL     1     -13.842   4.116 -15.002  0.00  0.00    -0.250 OA
BRANCH  17  19
ATOM     19  O   UNL     1     -13.631   5.484 -16.828  0.00  0.00    -0.464 OA
BRANCH  19  20
ATOM     20  C   UNL     1     -12.374   5.879 -17.395  0.00  0.00    +0.229 C 
ATOM     21  C   UNL     1     -12.546   7.123 -18.251  0.00  0.00    +0.048 C 
ENDBRANCH  19  20
ENDBRANCH  17  19
ENDBRANCH   7  17
TORSDOF 6
ENDMDL
MODEL 5
REMARK VINA RESULT:      -5.5      2.721      3.914
REMARK  Name = min_compound958.pdb
REMARK  8 active torsions:
REMARK  status: ('A' for Active; 'I' for Inactive)
REMARK    1  A    between atoms: _8  and  _15
REMARK    2  A    between atoms: _9  and  _10
REMARK    3  A    between atoms: _10  and  _12
REMARK    4  A    between atoms: _12  and  _16
REMARK    5  A    between atoms: _14  and  _15
REMARK    6  A    between atoms: _14  and  _18
REMARK    7  A    between atoms: _16  and  _17
REMARK    8  A    between atoms: _18  and  _19
REMARK                            x       y       z     vdW  Elec       q    Type
REMARK                         _______ _______ _______ _____ _____    ______ ____
ROOT
ATOM      1  C   UNL     1     -10.086   0.705 -15.634  0.00  0.00    +0.005 C 
ATOM      2  C   UNL     1     -10.645  -0.562 -16.209  0.00  0.00    +0.005 C 
ATOM      3  C   UNL     1     -10.885   0.012 -17.770  0.00  0.00    +0.042 C 
ATOM      4  C   UNL     1     -11.812   1.194 -17.805  0.00  0.00    -0.013 C 
ATOM      5  S   UNL     1     -12.687   1.722 -19.180  0.00  0.00    -0.106 S 
ATOM      6  C   UNL     1     -13.772   2.636 -18.183  0.00  0.00    +0.152 C 
ATOM      7  C   UNL     1     -13.090   2.984 -17.007  0.00  0.00    +0.155 C 
ATOM      8  C   UNL     1     -11.993   2.047 -16.746  0.00  0.00    -0.044 C 
ATOM      9  C   UNL     1     -11.133   1.880 -15.510  0.00  0.00    +0.032 C 
ENDROOT
BRANCH   6  10
ATOM     10  N   UNL     1     -14.994   3.114 -18.711  0.00  0.00    -0.313 N 
ATOM     11  H   UNL     1     -15.673   2.373 -18.870  0.00  0.00    +0.149 HD
BRANCH  10  12
ATOM     12  C   UNL     1     -15.372   4.272 -19.393  0.00  0.00    +0.131 C 
ATOM     13  S   UNL     1     -16.047   4.101 -20.915  0.00  0.00    -0.019 S 
BRANCH  12  14
ATOM     14  N   UNL     1     -15.109   5.549 -18.939  0.00  0.00    -0.330 N 
ATOM     15  H   UNL     1     -14.752   5.728 -18.008  0.00  0.00    +0.147 HD
ATOM     16  C   UNL     1     -15.404   6.602 -19.964  0.00  0.00    +0.127 C 
ENDBRANCH  12  14
ENDBRANCH  10  12
ENDBRANCH   6  10
BRANCH   7  17
ATOM     17  C   UNL     1     -13.479   4.062 -16.102  0.00  0.00    +0.317 C 
ATOM     18  O   UNL     1     -13.356   5.248 -16.379  0.00  0.00    -0.250 OA
BRANCH  17  19
ATOM     19  O   UNL     1     -14.090   3.596 -14.972  0.00  0.00    -0.464 OA
BRANCH  19  20
ATOM     20  C   UNL     1     -15.525   3.610 -14.994  0.00  0.00    +0.229 C 
ATOM     21  C   UNL     1     -16.068   2.190 -15.006  0.00  0.00    +0.048 C 
ENDBRANCH  19  20
ENDBRANCH  17  19
ENDBRANCH   7  17
TORSDOF 6
ENDMDL
MODEL 6
REMARK VINA RESULT:      -5.5     11.503     13.725
REMARK  Name = min_compound958.pdb
REMARK  8 active torsions:
REMARK  status: ('A' for Active; 'I' for Inactive)
REMARK    1  A    between atoms: _8  and  _15
REMARK    2  A    between atoms: _9  and  _10
REMARK    3  A    between atoms: _10  and  _12
REMARK    4  A    between atoms: _12  and  _16
REMARK    5  A    between atoms: _14  and  _15
REMARK    6  A    between atoms: _14  and  _18
REMARK    7  A    between atoms: _16  and  _17
REMARK    8  A    between atoms: _18  and  _19
REMARK                            x       y       z     vdW  Elec       q    Type
REMARK                         _______ _______ _______ _____ _____    ______ ____
ROOT
ATOM      1  C   UNL     1     -14.469  -2.252  -1.686  0.00  0.00    +0.005 C 
ATOM      2  C   UNL     1     -15.590  -2.166  -0.693  0.00  0.00    +0.005 C 
ATOM      3  C   UNL     1     -16.838  -2.014  -1.809  0.00  0.00    +0.042 C 
ATOM      4  C   UNL     1     -16.669  -0.809  -2.690  0.00  0.00    -0.013 C 
ATOM      5  S   UNL     1     -17.927  -0.039  -3.562  0.00  0.00    -0.106 S 
ATOM      6  C   UNL     1     -16.972   1.397  -3.742  0.00  0.00    +0.152 C 
ATOM      7  C   UNL     1     -15.620   1.027  -3.693  0.00  0.00    +0.155 C 
ATOM      8  C   UNL     1     -15.453  -0.236  -2.967  0.00  0.00    -0.044 C 
ATOM      9  C   UNL     1     -14.191  -0.910  -2.470  0.00  0.00    +0.032 C 
ENDROOT
BRANCH   6  10
ATOM     10  N   UNL     1     -17.578   2.609  -4.148  0.00  0.00    -0.313 N 
ATOM     11  H   UNL     1     -17.787   2.633  -5.144  0.00  0.00    +0.149 HD
BRANCH  10  12
ATOM     12  C   UNL     1     -17.635   3.895  -3.610  0.00  0.00    +0.131 C 
ATOM     13  S   UNL     1     -19.032   4.349  -2.807  0.00  0.00    -0.019 S 
BRANCH  12  14
ATOM     14  N   UNL     1     -16.660   4.852  -3.807  0.00  0.00    -0.330 N 
ATOM     15  H   UNL     1     -15.700   4.713  -3.516  0.00  0.00    +0.147 HD
ATOM     16  C   UNL     1     -17.183   6.083  -4.487  0.00  0.00    +0.127 C 
ENDBRANCH  12  14
ENDBRANCH  10  12
ENDBRANCH   6  10
BRANCH   7  17
ATOM     17  C   UNL     1     -14.513   1.837  -4.193  0.00  0.00    +0.317 C 
ATOM     18  O   UNL     1     -14.301   2.985  -3.825  0.00  0.00    -0.250 OA
BRANCH  17  19
ATOM     19  O   UNL     1     -13.689   1.132  -5.026  0.00  0.00    -0.464 OA
BRANCH  19  20
ATOM     20  C   UNL     1     -14.169   0.960  -6.368  0.00  0.00    +0.229 C 
ATOM     21  C   UNL     1     -14.514  -0.498  -6.623  0.00  0.00    +0.048 C 
ENDBRANCH  19  20
ENDBRANCH  17  19
ENDBRANCH   7  17
TORSDOF 6
ENDMDL
MODEL 7
REMARK VINA RESULT:      -5.5      2.824      3.826
REMARK  Name = min_compound958.pdb
REMARK  8 active torsions:
REMARK  status: ('A' for Active; 'I' for Inactive)
REMARK    1  A    between atoms: _8  and  _15
REMARK    2  A    between atoms: _9  and  _10
REMARK    3  A    between atoms: _10  and  _12
REMARK    4  A    between atoms: _12  and  _16
REMARK    5  A    between atoms: _14  and  _15
REMARK    6  A    between atoms: _14  and  _18
REMARK    7  A    between atoms: _16  and  _17
REMARK    8  A    between atoms: _18  and  _19
REMARK                            x       y       z     vdW  Elec       q    Type
REMARK                         _______ _______ _______ _____ _____    ______ ____
ROOT
ATOM      1  C   UNL     1     -11.638  -0.510 -16.574  0.00  0.00    +0.005 C 
ATOM      2  C   UNL     1     -10.585  -0.315 -17.624  0.00  0.00    +0.005 C 
ATOM      3  C   UNL     1      -9.839   1.016 -16.918  0.00  0.00    +0.042 C 
ATOM      4  C   UNL     1     -10.786   2.169 -16.739  0.00  0.00    -0.013 C 
ATOM      5  S   UNL     1     -10.321   3.808 -16.550  0.00  0.00    -0.106 S 
ATOM      6  C   UNL     1     -11.913   4.346 -16.976  0.00  0.00    +0.152 C 
ATOM      7  C   UNL     1     -12.818   3.325 -16.645  0.00  0.00    +0.155 C 
ATOM      8  C   UNL     1     -12.144   2.023 -16.615  0.00  0.00    -0.044 C 
ATOM      9  C   UNL     1     -12.731   0.629 -16.530  0.00  0.00    +0.032 C 
ENDROOT
BRANCH   6  10
ATOM     10  N   UNL     1     -12.141   5.700 -17.316  0.00  0.00    -0.313 N 
ATOM     11  H   UNL     1     -11.983   6.335 -16.536  0.00  0.00    +0.149 HD
BRANCH  10  12
ATOM     12  C   UNL     1     -12.859   6.341 -18.326  0.00  0.00    +0.131 C 
ATOM     13  S   UNL     1     -12.582   5.868 -19.908  0.00  0.00    -0.019 S 
BRANCH  12  14
ATOM     14  N   UNL     1     -13.689   7.422 -18.108  0.00  0.00    -0.330 N 
ATOM     15  H   UNL     1     -13.761   8.189 -18.767  0.00  0.00    +0.147 HD
ATOM     16  C   UNL     1     -14.449   7.321 -16.819  0.00  0.00    +0.127 C 
ENDBRANCH  12  14
ENDBRANCH  10  12
ENDBRANCH   6  10
BRANCH   7  17
ATOM     17  C   UNL     1     -14.255   3.508 -16.464  0.00  0.00    +0.317 C 
ATOM     18  O   UNL     1     -14.749   3.990 -15.453  0.00  0.00    -0.250 OA
BRANCH  17  19
ATOM     19  O   UNL     1     -14.966   3.183 -17.586  0.00  0.00    -0.464 OA
BRANCH  19  20
ATOM     20  C   UNL     1     -16.119   3.997 -17.844  0.00  0.00    +0.229 C 
ATOM     21  C   UNL     1     -16.106   4.493 -19.281  0.00  0.00    +0.048 C 
ENDBRANCH  19  20
ENDBRANCH  17  19
ENDBRANCH   7  17
TORSDOF 6
ENDMDL
MODEL 8
REMARK VINA RESULT:      -5.4     11.050     13.379
REMARK  Name = min_compound958.pdb
REMARK  8 active torsions:
REMARK  status: ('A' for Active; 'I' for Inactive)
REMARK    1  A    between atoms: _8  and  _15
REMARK    2  A    between atoms: _9  and  _10
REMARK    3  A    between atoms: _10  and  _12
REMARK    4  A    between atoms: _12  and  _16
REMARK    5  A    between atoms: _14  and  _15
REMARK    6  A    between atoms: _14  and  _18
REMARK    7  A    between atoms: _16  and  _17
REMARK    8  A    between atoms: _18  and  _19
REMARK                            x       y       z     vdW  Elec       q    Type
REMARK                         _______ _______ _______ _____ _____    ______ ____
ROOT
ATOM      1  C   UNL     1     -14.651  -2.503  -1.210  0.00  0.00    +0.005 C 
ATOM      2  C   UNL     1     -15.849  -2.155  -0.377  0.00  0.00    +0.005 C 
ATOM      3  C   UNL     1     -17.014  -2.554  -1.522  0.00  0.00    +0.042 C 
ATOM      4  C   UNL     1     -16.862  -1.759  -2.788  0.00  0.00    -0.013 C 
ATOM      5  S   UNL     1     -18.099  -1.498  -3.944  0.00  0.00    -0.106 S 
ATOM      6  C   UNL     1     -17.237  -0.152  -4.616  0.00  0.00    +0.152 C 
ATOM      7  C   UNL     1     -15.870  -0.347  -4.368  0.00  0.00    +0.155 C 
ATOM      8  C   UNL     1     -15.672  -1.221  -3.208  0.00  0.00    -0.044 C 
ATOM      9  C   UNL     1     -14.407  -1.536  -2.434  0.00  0.00    +0.032 C 
ENDROOT
BRANCH   6  10
ATOM     10  N   UNL     1     -17.893   0.755  -5.481  0.00  0.00    -0.313 N 
ATOM     11  H   UNL     1     -18.667   1.239  -5.032  0.00  0.00    +0.149 HD
BRANCH  10  12
ATOM     12  C   UNL     1     -17.975   0.888  -6.868  0.00  0.00    +0.131 C 
ATOM     13  S   UNL     1     -19.249   0.139  -7.654  0.00  0.00    -0.019 S 
BRANCH  12  14
ATOM     14  N   UNL     1     -17.005   1.496  -7.638  0.00  0.00    -0.330 N 
ATOM     15  H   UNL     1     -16.311   0.965  -8.151  0.00  0.00    +0.147 HD
ATOM     16  C   UNL     1     -17.104   2.993  -7.625  0.00  0.00    +0.127 C 
ENDBRANCH  12  14
ENDBRANCH  10  12
ENDBRANCH   6  10
BRANCH   7  17
ATOM     17  C   UNL     1     -14.786   0.316  -5.088  0.00  0.00    +0.317 C 
ATOM     18  O   UNL     1     -13.862  -0.290  -5.617  0.00  0.00    -0.250 OA
BRANCH  17  19
ATOM     19  O   UNL     1     -14.981   1.665  -5.195  0.00  0.00    -0.464 OA
BRANCH  19  20
ATOM     20  C   UNL     1     -14.845   2.407  -3.974  0.00  0.00    +0.229 C 
ATOM     21  C   UNL     1     -13.391   2.433  -3.530  0.00  0.00    +0.048 C 
ENDBRANCH  19  20
ENDBRANCH  17  19
ENDBRANCH   7  17
TORSDOF 6
ENDMDL
MODEL 9
REMARK VINA RESULT:      -5.3     13.273     15.631
REMARK  Name = min_compound958.pdb
REMARK  8 active torsions:
REMARK  status: ('A' for Active; 'I' for Inactive)
REMARK    1  A    between atoms: _8  and  _15
REMARK    2  A    between atoms: _9  and  _10
REMARK    3  A    between atoms: _10  and  _12
REMARK    4  A    between atoms: _12  and  _16
REMARK    5  A    between atoms: _14  and  _15
REMARK    6  A    between atoms: _14  and  _18
REMARK    7  A    between atoms: _16  and  _17
REMARK    8  A    between atoms: _18  and  _19
REMARK                            x       y       z     vdW  Elec       q    Type
REMARK                         _______ _______ _______ _____ _____    ______ ____
ROOT
ATOM      1  C   UNL     1     -13.476   1.651  -3.486  0.00  0.00    +0.005 C 
ATOM      2  C   UNL     1     -14.051   1.886  -4.851  0.00  0.00    +0.005 C 
ATOM      3  C   UNL     1     -15.670   1.835  -4.401  0.00  0.00    +0.042 C 
ATOM      4  C   UNL     1     -16.042   0.525  -3.765  0.00  0.00    -0.013 C 
ATOM      5  S   UNL     1     -17.634  -0.099  -3.650  0.00  0.00    -0.106 S 
ATOM      6  C   UNL     1     -17.025  -1.696  -3.356  0.00  0.00    +0.152 C 
ATOM      7  C   UNL     1     -15.755  -1.574  -2.772  0.00  0.00    +0.155 C 
ATOM      8  C   UNL     1     -15.145  -0.287  -3.119  0.00  0.00    -0.044 C 
ATOM      9  C   UNL     1     -13.724   0.200  -2.916  0.00  0.00    +0.032 C 
ENDROOT
BRANCH   6  10
ATOM     10  N   UNL     1     -17.881  -2.816  -3.467  0.00  0.00    -0.313 N 
ATOM     11  H   UNL     1     -18.359  -2.861  -4.364  0.00  0.00    +0.149 HD
BRANCH  10  12
ATOM     12  C   UNL     1     -18.499  -3.662  -2.545  0.00  0.00    +0.131 C 
ATOM     13  S   UNL     1     -19.964  -3.178  -1.894  0.00  0.00    -0.019 S 
BRANCH  12  14
ATOM     14  N   UNL     1     -17.917  -4.811  -2.049  0.00  0.00    -0.330 N 
ATOM     15  H   UNL     1     -17.620  -5.569  -2.651  0.00  0.00    +0.147 HD
ATOM     16  C   UNL     1     -17.780  -4.794  -0.555  0.00  0.00    +0.127 C 
ENDBRANCH  12  14
ENDBRANCH  10  12
ENDBRANCH   6  10
BRANCH   7  17
ATOM     17  C   UNL     1     -15.079  -2.623  -2.015  0.00  0.00    +0.317 C 
ATOM     18  O   UNL     1     -14.760  -2.504  -0.839  0.00  0.00    -0.250 OA
BRANCH  17  19
ATOM     19  O   UNL     1     -14.943  -3.778  -2.735  0.00  0.00    -0.464 OA
BRANCH  19  20
ATOM     20  C   UNL     1     -13.887  -4.651  -2.308  0.00  0.00    +0.229 C 
ATOM     21  C   UNL     1     -14.452  -5.995  -1.879  0.00  0.00    +0.048 C 
ENDBRANCH  19  20
ENDBRANCH  17  19
ENDBRANCH   7  17
TORSDOF 6
ENDMDL
