MODEL 1
REMARK VINA RESULT:      -7.4      0.000      0.000
REMARK  Name = min_compound943.pdb
REMARK  2 active torsions:
REMARK  status: ('A' for Active; 'I' for Inactive)
REMARK    1  A    between atoms: _1  and  _3
REMARK    2  A    between atoms: _1  and  _21
REMARK                            x       y       z     vdW  Elec       q    Type
REMARK                         _______ _______ _______ _____ _____    ______ ____
ROOT
ATOM      1  C   UNL     1     -15.422   7.422 -16.956  0.00  0.00    +0.216 A 
ATOM      2  N   UNL     1     -15.569   6.116 -16.666  0.00  0.00    -0.204 NA
ATOM      3  C   UNL     1     -14.506   5.299 -16.872  0.00  0.00    +0.128 A 
ATOM      4  S   UNL     1     -14.793   3.585 -16.468  0.00  0.00    -0.045 S 
ATOM      5  C   UNL     1     -13.207   2.836 -16.764  0.00  0.00    +0.144 A 
ATOM      6  N   UNL     1     -13.119   1.514 -16.471  0.00  0.00    -0.235 NA
ATOM      7  C   UNL     1     -11.931   0.920 -16.681  0.00  0.00    +0.091 A 
ATOM      8  C   UNL     1     -11.780  -0.430 -16.391  0.00  0.00    +0.030 A 
ATOM      9  C   UNL     1     -10.564  -1.085 -16.590  0.00  0.00    +0.002 A 
ATOM     10  C   UNL     1      -9.479  -0.377 -17.090  0.00  0.00    +0.002 A 
ATOM     11  C   UNL     1      -9.620   0.980 -17.385  0.00  0.00    +0.030 A 
ATOM     12  C   UNL     1     -10.825   1.643 -17.189  0.00  0.00    +0.091 A 
ATOM     13  N   UNL     1     -10.917   2.954 -17.483  0.00  0.00    -0.228 NA
ATOM     14  C   UNL     1     -12.111   3.551 -17.267  0.00  0.00    +0.156 A 
ATOM     15  N   UNL     1     -12.179   4.910 -17.564  0.00  0.00    -0.295 N 
ATOM     16  H   UNL     1     -11.303   5.284 -17.898  0.00  0.00    +0.154 HD
ATOM     17  C   UNL     1     -13.272   5.753 -17.362  0.00  0.00    +0.065 A 
ATOM     18  C   UNL     1     -13.158   7.116 -17.646  0.00  0.00    +0.031 A 
ATOM     19  C   UNL     1     -14.240   7.966 -17.432  0.00  0.00    +0.069 A 
ENDROOT
BRANCH   1  20
ATOM     20  O   UNL     1     -16.517   8.191 -16.668  0.00  0.00    -0.480 OA
ATOM     21  C   UNL     1     -16.221   9.271 -15.790  0.00  0.00    +0.279 C 
ENDBRANCH   1  20
TORSDOF 1
ENDMDL
MODEL 2
REMARK VINA RESULT:      -7.2      1.280      2.155
REMARK  Name = min_compound943.pdb
REMARK  2 active torsions:
REMARK  status: ('A' for Active; 'I' for Inactive)
REMARK    1  A    between atoms: _1  and  _3
REMARK    2  A    between atoms: _1  and  _21
REMARK                            x       y       z     vdW  Elec       q    Type
REMARK                         _______ _______ _______ _____ _____    ______ ____
ROOT
ATOM      1  C   UNL     1     -15.044   7.758 -17.162  0.00  0.00    +0.216 A 
ATOM      2  N   UNL     1     -13.797   7.307 -17.393  0.00  0.00    -0.204 NA
ATOM      3  C   UNL     1     -13.545   5.996 -17.156  0.00  0.00    +0.128 A 
ATOM      4  S   UNL     1     -11.865   5.488 -17.482  0.00  0.00    -0.045 S 
ATOM      5  C   UNL     1     -11.910   3.739 -17.160  0.00  0.00    +0.144 A 
ATOM      6  N   UNL     1     -10.751   3.070 -17.395  0.00  0.00    -0.235 NA
ATOM      7  C   UNL     1     -10.754   1.746 -17.164  0.00  0.00    +0.091 A 
ATOM      8  C   UNL     1      -9.600   1.009 -17.395  0.00  0.00    +0.030 A 
ATOM      9  C   UNL     1      -9.560  -0.369 -17.172  0.00  0.00    +0.002 A 
ATOM     10  C   UNL     1     -10.696  -1.021 -16.709  0.00  0.00    +0.002 A 
ATOM     11  C   UNL     1     -11.862  -0.289 -16.474  0.00  0.00    +0.030 A 
ATOM     12  C   UNL     1     -11.913   1.082 -16.694  0.00  0.00    +0.091 A 
ATOM     13  N   UNL     1     -13.059   1.750 -16.458  0.00  0.00    -0.228 NA
ATOM     14  C   UNL     1     -13.056   3.081 -16.695  0.00  0.00    +0.156 A 
ATOM     15  N   UNL     1     -14.255   3.748 -16.459  0.00  0.00    -0.295 N 
ATOM     16  H   UNL     1     -14.992   3.133 -16.146  0.00  0.00    +0.154 HD
ATOM     17  C   UNL     1     -14.518   5.097 -16.693  0.00  0.00    +0.065 A 
ATOM     18  C   UNL     1     -15.801   5.603 -16.470  0.00  0.00    +0.031 A 
ATOM     19  C   UNL     1     -16.075   6.946 -16.717  0.00  0.00    +0.069 A 
ENDROOT
BRANCH   1  20
ATOM     20  O   UNL     1     -15.236   9.075 -17.480  0.00  0.00    -0.480 OA
ATOM     21  C   UNL     1     -16.440   9.606 -16.939  0.00  0.00    +0.279 C 
ENDBRANCH   1  20
TORSDOF 1
ENDMDL
MODEL 3
REMARK VINA RESULT:      -7.1      1.981      2.209
REMARK  Name = min_compound943.pdb
REMARK  2 active torsions:
REMARK  status: ('A' for Active; 'I' for Inactive)
REMARK    1  A    between atoms: _1  and  _3
REMARK    2  A    between atoms: _1  and  _21
REMARK                            x       y       z     vdW  Elec       q    Type
REMARK                         _______ _______ _______ _____ _____    ______ ____
ROOT
ATOM      1  C   UNL     1     -15.179   7.219 -19.292  0.00  0.00    +0.216 A 
ATOM      2  N   UNL     1     -14.892   5.967 -19.695  0.00  0.00    -0.204 NA
ATOM      3  C   UNL     1     -14.041   5.237 -18.931  0.00  0.00    +0.128 A 
ATOM      4  S   UNL     1     -13.712   3.593 -19.544  0.00  0.00    -0.045 S 
ATOM      5  C   UNL     1     -12.659   2.904 -18.286  0.00  0.00    +0.144 A 
ATOM      6  N   UNL     1     -12.298   1.608 -18.470  0.00  0.00    -0.235 NA
ATOM      7  C   UNL     1     -11.505   1.058 -17.534  0.00  0.00    +0.091 A 
ATOM      8  C   UNL     1     -11.110  -0.267 -17.665  0.00  0.00    +0.030 A 
ATOM      9  C   UNL     1     -10.290  -0.879 -16.714  0.00  0.00    +0.002 A 
ATOM     10  C   UNL     1      -9.857  -0.151 -15.613  0.00  0.00    +0.002 A 
ATOM     11  C   UNL     1     -10.249   1.181 -15.472  0.00  0.00    +0.030 A 
ATOM     12  C   UNL     1     -11.066   1.800 -16.410  0.00  0.00    +0.091 A 
ATOM     13  N   UNL     1     -11.423   3.087 -16.234  0.00  0.00    -0.228 NA
ATOM     14  C   UNL     1     -12.224   3.637 -17.174  0.00  0.00    +0.156 A 
ATOM     15  N   UNL     1     -12.592   4.964 -16.964  0.00  0.00    -0.295 N 
ATOM     16  H   UNL     1     -12.214   5.346 -16.109  0.00  0.00    +0.154 HD
ATOM     17  C   UNL     1     -13.460   5.722 -17.749  0.00  0.00    +0.065 A 
ATOM     18  C   UNL     1     -13.787   7.024 -17.363  0.00  0.00    +0.031 A 
ATOM     19  C   UNL     1     -14.665   7.781 -18.135  0.00  0.00    +0.069 A 
ENDROOT
BRANCH   1  20
ATOM     20  O   UNL     1     -16.088   7.870 -20.081  0.00  0.00    -0.480 OA
ATOM     21  C   UNL     1     -15.682   7.953 -21.442  0.00  0.00    +0.279 C 
ENDBRANCH   1  20
TORSDOF 1
ENDMDL
MODEL 4
REMARK VINA RESULT:      -6.8      1.665      1.864
REMARK  Name = min_compound943.pdb
REMARK  2 active torsions:
REMARK  status: ('A' for Active; 'I' for Inactive)
REMARK    1  A    between atoms: _1  and  _3
REMARK    2  A    between atoms: _1  and  _21
REMARK                            x       y       z     vdW  Elec       q    Type
REMARK                         _______ _______ _______ _____ _____    ______ ____
ROOT
ATOM      1  C   UNL     1     -17.015   6.056 -15.542  0.00  0.00    +0.216 A 
ATOM      2  N   UNL     1     -16.803   4.729 -15.476  0.00  0.00    -0.204 NA
ATOM      3  C   UNL     1     -15.596   4.260 -15.881  0.00  0.00    +0.128 A 
ATOM      4  S   UNL     1     -15.405   2.489 -15.766  0.00  0.00    -0.045 S 
ATOM      5  C   UNL     1     -13.720   2.237 -16.278  0.00  0.00    +0.144 A 
ATOM      6  N   UNL     1     -13.277   0.955 -16.224  0.00  0.00    -0.235 NA
ATOM      7  C   UNL     1     -12.006   0.733 -16.602  0.00  0.00    +0.091 A 
ATOM      8  C   UNL     1     -11.496  -0.558 -16.560  0.00  0.00    +0.030 A 
ATOM      9  C   UNL     1     -10.181  -0.833 -16.940  0.00  0.00    +0.002 A 
ATOM     10  C   UNL     1      -9.362   0.203 -17.370  0.00  0.00    +0.002 A 
ATOM     11  C   UNL     1      -9.865   1.504 -17.416  0.00  0.00    +0.030 A 
ATOM     12  C   UNL     1     -11.171   1.790 -17.039  0.00  0.00    +0.091 A 
ATOM     13  N   UNL     1     -11.616   3.060 -17.095  0.00  0.00    -0.228 NA
ATOM     14  C   UNL     1     -12.893   3.282 -16.710  0.00  0.00    +0.156 A 
ATOM     15  N   UNL     1     -13.326   4.605 -16.762  0.00  0.00    -0.295 N 
ATOM     16  H   UNL     1     -12.608   5.242 -17.075  0.00  0.00    +0.154 HD
ATOM     17  C   UNL     1     -14.568   5.091 -16.355  0.00  0.00    +0.065 A 
ATOM     18  C   UNL     1     -14.826   6.463 -16.404  0.00  0.00    +0.031 A 
ATOM     19  C   UNL     1     -16.059   6.957 -15.983  0.00  0.00    +0.069 A 
ENDROOT
BRANCH   1  20
ATOM     20  O   UNL     1     -18.232   6.457 -15.063  0.00  0.00    -0.480 OA
ATOM     21  C   UNL     1     -19.262   5.505 -15.299  0.00  0.00    +0.279 C 
ENDBRANCH   1  20
TORSDOF 1
ENDMDL
MODEL 5
REMARK VINA RESULT:      -6.5     13.718     14.840
REMARK  Name = min_compound943.pdb
REMARK  2 active torsions:
REMARK  status: ('A' for Active; 'I' for Inactive)
REMARK    1  A    between atoms: _1  and  _3
REMARK    2  A    between atoms: _1  and  _21
REMARK                            x       y       z     vdW  Elec       q    Type
REMARK                         _______ _______ _______ _____ _____    ______ ____
ROOT
ATOM      1  C   UNL     1     -16.070   1.516  -6.659  0.00  0.00    +0.216 A 
ATOM      2  N   UNL     1     -16.558   1.181  -5.450  0.00  0.00    -0.204 NA
ATOM      3  C   UNL     1     -16.035   0.090  -4.837  0.00  0.00    +0.128 A 
ATOM      4  S   UNL     1     -16.747  -0.283  -3.243  0.00  0.00    -0.045 S 
ATOM      5  C   UNL     1     -15.790  -1.681  -2.699  0.00  0.00    +0.144 A 
ATOM      6  N   UNL     1     -16.084  -2.145  -1.457  0.00  0.00    -0.235 NA
ATOM      7  C   UNL     1     -15.376  -3.199  -1.017  0.00  0.00    +0.091 A 
ATOM      8  C   UNL     1     -15.627  -3.711   0.250  0.00  0.00    +0.030 A 
ATOM      9  C   UNL     1     -14.913  -4.802   0.748  0.00  0.00    +0.002 A 
ATOM     10  C   UNL     1     -13.930  -5.393  -0.036  0.00  0.00    +0.002 A 
ATOM     11  C   UNL     1     -13.669  -4.886  -1.310  0.00  0.00    +0.030 A 
ATOM     12  C   UNL     1     -14.372  -3.799  -1.815  0.00  0.00    +0.091 A 
ATOM     13  N   UNL     1     -14.087  -3.339  -3.049  0.00  0.00    -0.228 NA
ATOM     14  C   UNL     1     -14.797  -2.276  -3.488  0.00  0.00    +0.156 A 
ATOM     15  N   UNL     1     -14.475  -1.808  -4.760  0.00  0.00    -0.295 N 
ATOM     16  H   UNL     1     -13.726  -2.329  -5.193  0.00  0.00    +0.154 HD
ATOM     17  C   UNL     1     -15.014  -0.692  -5.399  0.00  0.00    +0.065 A 
ATOM     18  C   UNL     1     -14.532  -0.309  -6.652  0.00  0.00    +0.031 A 
ATOM     19  C   UNL     1     -15.056   0.814  -7.289  0.00  0.00    +0.069 A 
ENDROOT
BRANCH   1  20
ATOM     20  O   UNL     1     -16.606   2.659  -7.186  0.00  0.00    -0.480 OA
ATOM     21  C   UNL     1     -16.337   2.807  -8.575  0.00  0.00    +0.279 C 
ENDBRANCH   1  20
TORSDOF 1
ENDMDL
MODEL 6
REMARK VINA RESULT:      -6.4      2.647      7.170
REMARK  Name = min_compound943.pdb
REMARK  2 active torsions:
REMARK  status: ('A' for Active; 'I' for Inactive)
REMARK    1  A    between atoms: _1  and  _3
REMARK    2  A    between atoms: _1  and  _21
REMARK                            x       y       z     vdW  Elec       q    Type
REMARK                         _______ _______ _______ _____ _____    ______ ____
ROOT
ATOM      1  C   UNL     1     -10.924   0.587 -16.843  0.00  0.00    +0.216 A 
ATOM      2  N   UNL     1     -12.193   0.941 -16.566  0.00  0.00    -0.204 NA
ATOM      3  C   UNL     1     -12.524   2.251 -16.685  0.00  0.00    +0.128 A 
ATOM      4  S   UNL     1     -14.224   2.630 -16.292  0.00  0.00    -0.045 S 
ATOM      5  C   UNL     1     -14.331   4.373 -16.633  0.00  0.00    +0.144 A 
ATOM      6  N   UNL     1     -15.561   4.926 -16.475  0.00  0.00    -0.235 NA
ATOM      7  C   UNL     1     -15.675   6.241 -16.729  0.00  0.00    +0.091 A 
ATOM      8  C   UNL     1     -16.911   6.860 -16.593  0.00  0.00    +0.030 A 
ATOM      9  C   UNL     1     -17.074   8.222 -16.849  0.00  0.00    +0.002 A 
ATOM     10  C   UNL     1     -15.981   8.980 -17.249  0.00  0.00    +0.002 A 
ATOM     11  C   UNL     1     -14.735   8.368 -17.389  0.00  0.00    +0.030 A 
ATOM     12  C   UNL     1     -14.560   7.012 -17.139  0.00  0.00    +0.091 A 
ATOM     13  N   UNL     1     -13.340   6.461 -17.289  0.00  0.00    -0.228 NA
ATOM     14  C   UNL     1     -13.229   5.137 -17.038  0.00  0.00    +0.156 A 
ATOM     15  N   UNL     1     -11.962   4.585 -17.215  0.00  0.00    -0.295 N 
ATOM     16  H   UNL     1     -11.279   5.260 -17.528  0.00  0.00    +0.154 HD
ATOM     17  C   UNL     1     -11.614   3.241 -17.086  0.00  0.00    +0.065 A 
ATOM     18  C   UNL     1     -10.308   2.833 -17.368  0.00  0.00    +0.031 A 
ATOM     19  C   UNL     1      -9.958   1.489 -17.257  0.00  0.00    +0.069 A 
ENDROOT
BRANCH   1  20
ATOM     20  O   UNL     1     -10.682  -0.757 -16.756  0.00  0.00    -0.480 OA
ATOM     21  C   UNL     1      -9.630  -1.074 -15.853  0.00  0.00    +0.279 C 
ENDBRANCH   1  20
TORSDOF 1
ENDMDL
MODEL 7
REMARK VINA RESULT:      -6.2      2.795      7.480
REMARK  Name = min_compound943.pdb
REMARK  2 active torsions:
REMARK  status: ('A' for Active; 'I' for Inactive)
REMARK    1  A    between atoms: _1  and  _3
REMARK    2  A    between atoms: _1  and  _21
REMARK                            x       y       z     vdW  Elec       q    Type
REMARK                         _______ _______ _______ _____ _____    ______ ____
ROOT
ATOM      1  C   UNL     1     -10.510   0.813 -16.924  0.00  0.00    +0.216 A 
ATOM      2  N   UNL     1     -10.457   2.137 -17.157  0.00  0.00    -0.204 NA
ATOM      3  C   UNL     1     -11.622   2.831 -17.126  0.00  0.00    +0.128 A 
ATOM      4  S   UNL     1     -11.459   4.579 -17.454  0.00  0.00    -0.045 S 
ATOM      5  C   UNL     1     -13.122   5.177 -17.249  0.00  0.00    +0.144 A 
ATOM      6  N   UNL     1     -13.282   6.519 -17.382  0.00  0.00    -0.235 NA
ATOM      7  C   UNL     1     -14.527   7.003 -17.229  0.00  0.00    +0.091 A 
ATOM      8  C   UNL     1     -14.749   8.369 -17.346  0.00  0.00    +0.030 A 
ATOM      9  C   UNL     1     -16.025   8.914 -17.192  0.00  0.00    +0.002 A 
ATOM     10  C   UNL     1     -17.099   8.076 -16.916  0.00  0.00    +0.002 A 
ATOM     11  C   UNL     1     -16.886   6.702 -16.796  0.00  0.00    +0.030 A 
ATOM     12  C   UNL     1     -15.620   6.149 -16.946  0.00  0.00    +0.091 A 
ATOM     13  N   UNL     1     -15.458   4.817 -16.819  0.00  0.00    -0.228 NA
ATOM     14  C   UNL     1     -14.205   4.333 -16.968  0.00  0.00    +0.156 A 
ATOM     15  N   UNL     1     -14.058   2.956 -16.818  0.00  0.00    -0.295 N 
ATOM     16  H   UNL     1     -14.927   2.490 -16.599  0.00  0.00    +0.154 HD
ATOM     17  C   UNL     1     -12.864   2.236 -16.857  0.00  0.00    +0.065 A 
ATOM     18  C   UNL     1     -12.876   0.861 -16.616  0.00  0.00    +0.031 A 
ATOM     19  C   UNL     1     -11.685   0.138 -16.638  0.00  0.00    +0.069 A 
ENDROOT
BRANCH   1  20
ATOM     20  O   UNL     1      -9.290   0.193 -16.915  0.00  0.00    -0.480 OA
ATOM     21  C   UNL     1      -9.304  -1.048 -16.220  0.00  0.00    +0.279 C 
ENDBRANCH   1  20
TORSDOF 1
ENDMDL
MODEL 8
REMARK VINA RESULT:      -6.1     10.624     11.321
REMARK  Name = min_compound943.pdb
REMARK  2 active torsions:
REMARK  status: ('A' for Active; 'I' for Inactive)
REMARK    1  A    between atoms: _1  and  _3
REMARK    2  A    between atoms: _1  and  _21
REMARK                            x       y       z     vdW  Elec       q    Type
REMARK                         _______ _______ _______ _____ _____    ______ ____
ROOT
ATOM      1  C   UNL     1     -18.535   3.431 -10.590  0.00  0.00    +0.216 A 
ATOM      2  N   UNL     1     -18.973   2.689  -9.555  0.00  0.00    -0.204 NA
ATOM      3  C   UNL     1     -18.052   2.234  -8.670  0.00  0.00    +0.128 A 
ATOM      4  S   UNL     1     -18.720   1.255  -7.335  0.00  0.00    -0.045 S 
ATOM      5  C   UNL     1     -17.286   0.909  -6.341  0.00  0.00    +0.144 A 
ATOM      6  N   UNL     1     -17.519   0.214  -5.198  0.00  0.00    -0.235 NA
ATOM      7  C   UNL     1     -16.456  -0.060  -4.423  0.00  0.00    +0.091 A 
ATOM      8  C   UNL     1     -16.635  -0.762  -3.238  0.00  0.00    +0.030 A 
ATOM      9  C   UNL     1     -15.559  -1.064  -2.401  0.00  0.00    +0.002 A 
ATOM     10  C   UNL     1     -14.279  -0.658  -2.758  0.00  0.00    +0.002 A 
ATOM     11  C   UNL     1     -14.088   0.047  -3.947  0.00  0.00    +0.030 A 
ATOM     12  C   UNL     1     -15.152   0.355  -4.786  0.00  0.00    +0.091 A 
ATOM     13  N   UNL     1     -14.924   1.041  -5.923  0.00  0.00    -0.228 NA
ATOM     14  C   UNL     1     -15.995   1.319  -6.699  0.00  0.00    +0.156 A 
ATOM     15  N   UNL     1     -15.738   2.042  -7.862  0.00  0.00    -0.295 N 
ATOM     16  H   UNL     1     -14.762   2.280  -7.969  0.00  0.00    +0.154 HD
ATOM     17  C   UNL     1     -16.679   2.506  -8.780  0.00  0.00    +0.065 A 
ATOM     18  C   UNL     1     -16.266   3.282  -9.865  0.00  0.00    +0.031 A 
ATOM     19  C   UNL     1     -17.203   3.762 -10.778  0.00  0.00    +0.069 A 
ENDROOT
BRANCH   1  20
ATOM     20  O   UNL     1     -19.528   3.901 -11.406  0.00  0.00    -0.480 OA
ATOM     21  C   UNL     1     -19.186   3.842 -12.786  0.00  0.00    +0.279 C 
ENDBRANCH   1  20
TORSDOF 1
ENDMDL
MODEL 9
REMARK VINA RESULT:      -6.0      9.764     10.445
REMARK  Name = min_compound943.pdb
REMARK  2 active torsions:
REMARK  status: ('A' for Active; 'I' for Inactive)
REMARK    1  A    between atoms: _1  and  _3
REMARK    2  A    between atoms: _1  and  _21
REMARK                            x       y       z     vdW  Elec       q    Type
REMARK                         _______ _______ _______ _____ _____    ______ ____
ROOT
ATOM      1  C   UNL     1     -19.382   4.691 -11.097  0.00  0.00    +0.216 A 
ATOM      2  N   UNL     1     -19.335   4.687  -9.752  0.00  0.00    -0.204 NA
ATOM      3  C   UNL     1     -18.417   3.887  -9.154  0.00  0.00    +0.128 A 
ATOM      4  S   UNL     1     -18.430   3.939  -7.370  0.00  0.00    -0.045 S 
ATOM      5  C   UNL     1     -17.078   2.870  -6.932  0.00  0.00    +0.144 A 
ATOM      6  N   UNL     1     -16.815   2.773  -5.603  0.00  0.00    -0.235 NA
ATOM      7  C   UNL     1     -15.796   1.975  -5.240  0.00  0.00    +0.091 A 
ATOM      8  C   UNL     1     -15.476   1.843  -3.895  0.00  0.00    +0.030 A 
ATOM      9  C   UNL     1     -14.423   1.028  -3.474  0.00  0.00    +0.002 A 
ATOM     10  C   UNL     1     -13.678   0.331  -4.417  0.00  0.00    +0.002 A 
ATOM     11  C   UNL     1     -13.992   0.457  -5.771  0.00  0.00    +0.030 A 
ATOM     12  C   UNL     1     -15.035   1.266  -6.202  0.00  0.00    +0.091 A 
ATOM     13  N   UNL     1     -15.302   1.362  -7.518  0.00  0.00    -0.228 NA
ATOM     14  C   UNL     1     -16.325   2.169  -7.882  0.00  0.00    +0.156 A 
ATOM     15  N   UNL     1     -16.573   2.264  -9.249  0.00  0.00    -0.295 N 
ATOM     16  H   UNL     1     -15.933   1.715  -9.804  0.00  0.00    +0.154 HD
ATOM     17  C   UNL     1     -17.520   3.078  -9.869  0.00  0.00    +0.065 A 
ATOM     18  C   UNL     1     -17.598   3.114 -11.263  0.00  0.00    +0.031 A 
ATOM     19  C   UNL     1     -18.531   3.937 -11.889  0.00  0.00    +0.069 A 
ENDROOT
BRANCH   1  20
ATOM     20  O   UNL     1     -20.292   5.565 -11.627  0.00  0.00    -0.480 OA
ATOM     21  C   UNL     1     -21.367   5.851 -10.740  0.00  0.00    +0.279 C 
ENDBRANCH   1  20
TORSDOF 1
ENDMDL
