MODEL 1
REMARK VINA RESULT:      -6.4      0.000      0.000
REMARK  Name = min_compound937.pdb
REMARK  8 active torsions:
REMARK  status: ('A' for Active; 'I' for Inactive)
REMARK    1  A    between atoms: _1  and  _2
REMARK    2  A    between atoms: _1  and  _10
REMARK    3  A    between atoms: _2  and  _17
REMARK    4  A    between atoms: _4  and  _17
REMARK    5  A    between atoms: _7  and  _18
REMARK    6  A    between atoms: _12  and  _15
REMARK    7  A    between atoms: _15  and  _16
REMARK    8  A    between atoms: _18  and  _19
REMARK                            x       y       z     vdW  Elec       q    Type
REMARK                         _______ _______ _______ _____ _____    ______ ____
ROOT
ATOM      1  N   UNL     1     -13.400   2.788 -17.981  0.00  0.00    -0.163 NA
ATOM      2  H   UNL     1     -12.464   2.800 -18.387  0.00  0.00    +0.168 HD
ENDROOT
BRANCH   1   3
ATOM      3  N   UNL     1     -13.414   2.039 -16.862  0.00  0.00    -0.261 N 
ATOM      4  H   UNL     1     -13.869   2.455 -16.054  0.00  0.00    +0.168 HD
BRANCH   3   5
ATOM      5  C   UNL     1     -12.268   1.285 -16.527  0.00  0.00    +0.084 A 
ATOM      6  C   UNL     1     -11.219   1.902 -15.810  0.00  0.00    +0.142 A 
ATOM      7  C   UNL     1     -10.113   1.147 -15.404  0.00  0.00    +0.047 A 
ATOM      8  C   UNL     1     -10.049  -0.218 -15.694  0.00  0.00    +0.004 A 
ATOM      9  C   UNL     1     -11.085  -0.836 -16.389  0.00  0.00    +0.002 A 
ATOM     10  C   UNL     1     -12.190  -0.089 -16.797  0.00  0.00    +0.028 A 
BRANCH   6  11
ATOM     11  O   UNL     1     -11.381   3.249 -15.578  0.00  0.00    -0.493 OA
ATOM     12  C   UNL     1     -10.234   4.074 -15.732  0.00  0.00    +0.277 C 
ENDBRANCH   6  11
ENDBRANCH   3   5
ENDBRANCH   1   3
BRANCH   1  13
ATOM     13  N   UNL     1     -13.734   3.936 -17.633  0.00  0.00    -0.261 N 
ATOM     14  H   UNL     1     -14.393   4.125 -16.927  0.00  0.00    +0.168 HD
BRANCH  13  15
ATOM     15  C   UNL     1     -13.057   4.933 -18.368  0.00  0.00    +0.084 A 
ATOM     16  C   UNL     1     -12.925   4.949 -19.770  0.00  0.00    +0.142 A 
ATOM     17  C   UNL     1     -12.302   6.022 -20.421  0.00  0.00    +0.047 A 
ATOM     18  C   UNL     1     -11.777   7.079 -19.681  0.00  0.00    +0.004 A 
ATOM     19  C   UNL     1     -11.886   7.076 -18.293  0.00  0.00    +0.002 A 
ATOM     20  C   UNL     1     -12.528   6.014 -17.646  0.00  0.00    +0.028 A 
BRANCH  16  21
ATOM     21  O   UNL     1     -13.485   3.953 -20.532  0.00  0.00    -0.493 OA
ATOM     22  C   UNL     1     -14.689   4.410 -21.152  0.00  0.00    +0.277 C 
ENDBRANCH  16  21
ENDBRANCH  13  15
ENDBRANCH   1  13
TORSDOF 6
ENDMDL
MODEL 2
REMARK VINA RESULT:      -6.2      3.848      4.770
REMARK  Name = min_compound937.pdb
REMARK  8 active torsions:
REMARK  status: ('A' for Active; 'I' for Inactive)
REMARK    1  A    between atoms: _1  and  _2
REMARK    2  A    between atoms: _1  and  _10
REMARK    3  A    between atoms: _2  and  _17
REMARK    4  A    between atoms: _4  and  _17
REMARK    5  A    between atoms: _7  and  _18
REMARK    6  A    between atoms: _12  and  _15
REMARK    7  A    between atoms: _15  and  _16
REMARK    8  A    between atoms: _18  and  _19
REMARK                            x       y       z     vdW  Elec       q    Type
REMARK                         _______ _______ _______ _____ _____    ______ ____
ROOT
ATOM      1  N   UNL     1     -14.512   2.158 -15.994  0.00  0.00    -0.163 NA
ATOM      2  H   UNL     1     -15.378   1.784 -16.382  0.00  0.00    +0.168 HD
ENDROOT
BRANCH   1   3
ATOM      3  N   UNL     1     -13.517   2.067 -16.899  0.00  0.00    -0.261 N 
ATOM      4  H   UNL     1     -13.804   1.935 -17.864  0.00  0.00    +0.168 HD
BRANCH   3   5
ATOM      5  C   UNL     1     -12.350   1.346 -16.563  0.00  0.00    +0.084 A 
ATOM      6  C   UNL     1     -11.330   1.985 -15.825  0.00  0.00    +0.142 A 
ATOM      7  C   UNL     1     -10.204   1.260 -15.419  0.00  0.00    +0.047 A 
ATOM      8  C   UNL     1     -10.091  -0.098 -15.731  0.00  0.00    +0.004 A 
ATOM      9  C   UNL     1     -11.100  -0.738 -16.446  0.00  0.00    +0.002 A 
ATOM     10  C   UNL     1     -12.225  -0.021 -16.855  0.00  0.00    +0.028 A 
BRANCH   6  11
ATOM     11  O   UNL     1     -11.538   3.322 -15.574  0.00  0.00    -0.493 OA
ATOM     12  C   UNL     1     -10.568   4.232 -16.075  0.00  0.00    +0.277 C 
ENDBRANCH   6  11
ENDBRANCH   3   5
ENDBRANCH   1   3
BRANCH   1  13
ATOM     13  N   UNL     1     -14.640   3.370 -15.743  0.00  0.00    -0.261 N 
ATOM     14  H   UNL     1     -14.278   4.090 -16.309  0.00  0.00    +0.168 HD
BRANCH  13  15
ATOM     15  C   UNL     1     -15.365   3.593 -14.552  0.00  0.00    +0.084 A 
ATOM     16  C   UNL     1     -16.684   3.157 -14.319  0.00  0.00    +0.142 A 
ATOM     17  C   UNL     1     -17.298   3.356 -13.075  0.00  0.00    +0.047 A 
ATOM     18  C   UNL     1     -16.615   4.018 -12.057  0.00  0.00    +0.004 A 
ATOM     19  C   UNL     1     -15.315   4.467 -12.271  0.00  0.00    +0.002 A 
ATOM     20  C   UNL     1     -14.695   4.248 -13.506  0.00  0.00    +0.028 A 
BRANCH  16  21
ATOM     21  O   UNL     1     -17.360   2.449 -15.281  0.00  0.00    -0.493 OA
ATOM     22  C   UNL     1     -18.703   2.922 -15.404  0.00  0.00    +0.277 C 
ENDBRANCH  16  21
ENDBRANCH  13  15
ENDBRANCH   1  13
TORSDOF 6
ENDMDL
MODEL 3
REMARK VINA RESULT:      -6.1      1.347      5.834
REMARK  Name = min_compound937.pdb
REMARK  8 active torsions:
REMARK  status: ('A' for Active; 'I' for Inactive)
REMARK    1  A    between atoms: _1  and  _2
REMARK    2  A    between atoms: _1  and  _10
REMARK    3  A    between atoms: _2  and  _17
REMARK    4  A    between atoms: _4  and  _17
REMARK    5  A    between atoms: _7  and  _18
REMARK    6  A    between atoms: _12  and  _15
REMARK    7  A    between atoms: _15  and  _16
REMARK    8  A    between atoms: _18  and  _19
REMARK                            x       y       z     vdW  Elec       q    Type
REMARK                         _______ _______ _______ _____ _____    ______ ____
ROOT
ATOM      1  N   UNL     1     -13.381   2.432 -17.703  0.00  0.00    -0.163 NA
ATOM      2  H   UNL     1     -13.100   2.888 -16.835  0.00  0.00    +0.168 HD
ENDROOT
BRANCH   1   3
ATOM      3  N   UNL     1     -13.923   3.330 -18.549  0.00  0.00    -0.261 N 
ATOM      4  H   UNL     1     -14.199   2.973 -19.460  0.00  0.00    +0.168 HD
BRANCH   3   5
ATOM      5  C   UNL     1     -13.383   4.633 -18.604  0.00  0.00    +0.084 A 
ATOM      6  C   UNL     1     -13.462   5.463 -17.464  0.00  0.00    +0.142 A 
ATOM      7  C   UNL     1     -12.862   6.727 -17.478  0.00  0.00    +0.047 A 
ATOM      8  C   UNL     1     -12.174   7.167 -18.613  0.00  0.00    +0.004 A 
ATOM      9  C   UNL     1     -12.081   6.349 -19.736  0.00  0.00    +0.002 A 
ATOM     10  C   UNL     1     -12.678   5.087 -19.728  0.00  0.00    +0.028 A 
BRANCH   6  11
ATOM     11  O   UNL     1     -14.162   4.936 -16.403  0.00  0.00    -0.493 OA
ATOM     12  C   UNL     1     -15.159   5.761 -15.813  0.00  0.00    +0.277 C 
ENDBRANCH   6  11
ENDBRANCH   3   5
ENDBRANCH   1   3
BRANCH   1  13
ATOM     13  N   UNL     1     -12.386   1.965 -18.287  0.00  0.00    -0.261 N 
ATOM     14  H   UNL     1     -12.223   2.056 -19.254  0.00  0.00    +0.168 HD
BRANCH  13  15
ATOM     15  C   UNL     1     -11.517   1.290 -17.402  0.00  0.00    +0.084 A 
ATOM     16  C   UNL     1     -11.075   1.799 -16.165  0.00  0.00    +0.142 A 
ATOM     17  C   UNL     1     -10.274   1.025 -15.315  0.00  0.00    +0.047 A 
ATOM     18  C   UNL     1      -9.880  -0.255 -15.699  0.00  0.00    +0.004 A 
ATOM     19  C   UNL     1     -10.297  -0.771 -16.923  0.00  0.00    +0.002 A 
ATOM     20  C   UNL     1     -11.114  -0.006 -17.761  0.00  0.00    +0.028 A 
BRANCH  16  21
ATOM     21  O   UNL     1     -11.495   3.032 -15.731  0.00  0.00    -0.493 OA
ATOM     22  C   UNL     1     -10.441   3.989 -15.836  0.00  0.00    +0.277 C 
ENDBRANCH  16  21
ENDBRANCH  13  15
ENDBRANCH   1  13
TORSDOF 6
ENDMDL
MODEL 4
REMARK VINA RESULT:      -6.1      2.972      3.832
REMARK  Name = min_compound937.pdb
REMARK  8 active torsions:
REMARK  status: ('A' for Active; 'I' for Inactive)
REMARK    1  A    between atoms: _1  and  _2
REMARK    2  A    between atoms: _1  and  _10
REMARK    3  A    between atoms: _2  and  _17
REMARK    4  A    between atoms: _4  and  _17
REMARK    5  A    between atoms: _7  and  _18
REMARK    6  A    between atoms: _12  and  _15
REMARK    7  A    between atoms: _15  and  _16
REMARK    8  A    between atoms: _18  and  _19
REMARK                            x       y       z     vdW  Elec       q    Type
REMARK                         _______ _______ _______ _____ _____    ______ ____
ROOT
ATOM      1  N   UNL     1     -14.173   2.615 -16.014  0.00  0.00    -0.163 NA
ATOM      2  H   UNL     1     -15.040   2.080 -15.955  0.00  0.00    +0.168 HD
ENDROOT
BRANCH   1   3
ATOM      3  N   UNL     1     -13.374   2.105 -16.973  0.00  0.00    -0.261 N 
ATOM      4  H   UNL     1     -13.845   1.733 -17.793  0.00  0.00    +0.168 HD
BRANCH   3   5
ATOM      5  C   UNL     1     -12.242   1.351 -16.593  0.00  0.00    +0.084 A 
ATOM      6  C   UNL     1     -11.236   1.959 -15.811  0.00  0.00    +0.142 A 
ATOM      7  C   UNL     1     -10.148   1.203 -15.362  0.00  0.00    +0.047 A 
ATOM      8  C   UNL     1     -10.060  -0.157 -15.674  0.00  0.00    +0.004 A 
ATOM      9  C   UNL     1     -11.056  -0.767 -16.433  0.00  0.00    +0.002 A 
ATOM     10  C   UNL     1     -12.143  -0.017 -16.884  0.00  0.00    +0.028 A 
BRANCH   6  11
ATOM     11  O   UNL     1     -11.418   3.301 -15.564  0.00  0.00    -0.493 OA
ATOM     12  C   UNL     1     -10.446   4.193 -16.095  0.00  0.00    +0.277 C 
ENDBRANCH   6  11
ENDBRANCH   3   5
ENDBRANCH   1   3
BRANCH   1  13
ATOM     13  N   UNL     1     -14.411   3.789 -16.351  0.00  0.00    -0.261 N 
ATOM     14  H   UNL     1     -14.343   4.119 -17.276  0.00  0.00    +0.168 HD
BRANCH  13  15
ATOM     15  C   UNL     1     -14.791   4.591 -15.253  0.00  0.00    +0.084 A 
ATOM     16  C   UNL     1     -15.332   5.887 -15.353  0.00  0.00    +0.142 A 
ATOM     17  C   UNL     1     -15.754   6.580 -14.211  0.00  0.00    +0.047 A 
ATOM     18  C   UNL     1     -15.613   6.002 -12.951  0.00  0.00    +0.004 A 
ATOM     19  C   UNL     1     -15.069   4.726 -12.830  0.00  0.00    +0.002 A 
ATOM     20  C   UNL     1     -14.669   4.027 -13.974  0.00  0.00    +0.028 A 
BRANCH  16  21
ATOM     21  O   UNL     1     -15.540   6.460 -16.584  0.00  0.00    -0.493 OA
ATOM     22  C   UNL     1     -14.528   7.428 -16.866  0.00  0.00    +0.277 C 
ENDBRANCH  16  21
ENDBRANCH  13  15
ENDBRANCH   1  13
TORSDOF 6
ENDMDL
MODEL 5
REMARK VINA RESULT:      -6.0     13.138     15.784
REMARK  Name = min_compound937.pdb
REMARK  8 active torsions:
REMARK  status: ('A' for Active; 'I' for Inactive)
REMARK    1  A    between atoms: _1  and  _2
REMARK    2  A    between atoms: _1  and  _10
REMARK    3  A    between atoms: _2  and  _17
REMARK    4  A    between atoms: _4  and  _17
REMARK    5  A    between atoms: _7  and  _18
REMARK    6  A    between atoms: _12  and  _15
REMARK    7  A    between atoms: _15  and  _16
REMARK    8  A    between atoms: _18  and  _19
REMARK                            x       y       z     vdW  Elec       q    Type
REMARK                         _______ _______ _______ _____ _____    ______ ____
ROOT
ATOM      1  N   UNL     1     -14.648  -1.755  -4.380  0.00  0.00    -0.163 NA
ATOM      2  H   UNL     1     -13.931  -2.350  -3.966  0.00  0.00    +0.168 HD
ENDROOT
BRANCH   1   3
ATOM      3  N   UNL     1     -14.653  -1.893  -5.721  0.00  0.00    -0.261 N 
ATOM      4  H   UNL     1     -13.804  -2.271  -6.132  0.00  0.00    +0.168 HD
BRANCH   3   5
ATOM      5  C   UNL     1     -15.253  -0.890  -6.512  0.00  0.00    +0.084 A 
ATOM      6  C   UNL     1     -14.728   0.421  -6.483  0.00  0.00    +0.142 A 
ATOM      7  C   UNL     1     -15.264   1.406  -7.320  0.00  0.00    +0.047 A 
ATOM      8  C   UNL     1     -16.309   1.094  -8.194  0.00  0.00    +0.004 A 
ATOM      9  C   UNL     1     -16.823  -0.199  -8.238  0.00  0.00    +0.002 A 
ATOM     10  C   UNL     1     -16.293  -1.185  -7.405  0.00  0.00    +0.028 A 
BRANCH   6  11
ATOM     11  O   UNL     1     -13.703   0.621  -5.586  0.00  0.00    -0.493 OA
ATOM     12  C   UNL     1     -13.893   1.632  -4.604  0.00  0.00    +0.277 C 
ENDBRANCH   6  11
ENDBRANCH   3   5
ENDBRANCH   1   3
BRANCH   1  13
ATOM     13  N   UNL     1     -15.778  -2.104  -3.993  0.00  0.00    -0.261 N 
ATOM     14  H   UNL     1     -16.562  -2.182  -4.584  0.00  0.00    +0.168 HD
BRANCH  13  15
ATOM     15  C   UNL     1     -15.805  -2.378  -2.608  0.00  0.00    +0.084 A 
ATOM     16  C   UNL     1     -15.001  -3.336  -1.961  0.00  0.00    +0.142 A 
ATOM     17  C   UNL     1     -15.039  -3.485  -0.569  0.00  0.00    +0.047 A 
ATOM     18  C   UNL     1     -15.902  -2.701   0.195  0.00  0.00    +0.004 A 
ATOM     19  C   UNL     1     -16.714  -1.756  -0.428  0.00  0.00    +0.002 A 
ATOM     20  C   UNL     1     -16.658  -1.594  -1.816  0.00  0.00    +0.028 A 
BRANCH  16  21
ATOM     21  O   UNL     1     -14.097  -4.081  -2.678  0.00  0.00    -0.493 OA
ATOM     22  C   UNL     1     -13.583  -5.150  -1.883  0.00  0.00    +0.277 C 
ENDBRANCH  16  21
ENDBRANCH  13  15
ENDBRANCH   1  13
TORSDOF 6
ENDMDL
MODEL 6
REMARK VINA RESULT:      -6.0      3.336      5.527
REMARK  Name = min_compound937.pdb
REMARK  8 active torsions:
REMARK  status: ('A' for Active; 'I' for Inactive)
REMARK    1  A    between atoms: _1  and  _2
REMARK    2  A    between atoms: _1  and  _10
REMARK    3  A    between atoms: _2  and  _17
REMARK    4  A    between atoms: _4  and  _17
REMARK    5  A    between atoms: _7  and  _18
REMARK    6  A    between atoms: _12  and  _15
REMARK    7  A    between atoms: _15  and  _16
REMARK    8  A    between atoms: _18  and  _19
REMARK                            x       y       z     vdW  Elec       q    Type
REMARK                         _______ _______ _______ _____ _____    ______ ____
ROOT
ATOM      1  N   UNL     1     -14.366   1.499 -16.052  0.00  0.00    -0.163 NA
ATOM      2  H   UNL     1     -13.884   1.463 -15.154  0.00  0.00    +0.168 HD
ENDROOT
BRANCH   1   3
ATOM      3  N   UNL     1     -15.492   2.233 -15.948  0.00  0.00    -0.261 N 
ATOM      4  H   UNL     1     -15.770   2.741 -16.783  0.00  0.00    +0.168 HD
BRANCH   3   5
ATOM      5  C   UNL     1     -15.737   2.947 -14.755  0.00  0.00    +0.084 A 
ATOM      6  C   UNL     1     -15.077   4.177 -14.536  0.00  0.00    +0.142 A 
ATOM      7  C   UNL     1     -15.369   4.932 -13.396  0.00  0.00    +0.047 A 
ATOM      8  C   UNL     1     -16.322   4.481 -12.478  0.00  0.00    +0.004 A 
ATOM      9  C   UNL     1     -16.986   3.277 -12.694  0.00  0.00    +0.002 A 
ATOM     10  C   UNL     1     -16.698   2.518 -13.829  0.00  0.00    +0.028 A 
BRANCH   6  11
ATOM     11  O   UNL     1     -14.158   4.527 -15.499  0.00  0.00    -0.493 OA
ATOM     12  C   UNL     1     -14.505   5.602 -16.362  0.00  0.00    +0.277 C 
ENDBRANCH   6  11
ENDBRANCH   3   5
ENDBRANCH   1   3
BRANCH   1  13
ATOM     13  N   UNL     1     -13.657   2.073 -16.900  0.00  0.00    -0.261 N 
ATOM     14  H   UNL     1     -13.959   2.837 -17.442  0.00  0.00    +0.168 HD
BRANCH  13  15
ATOM     15  C   UNL     1     -12.370   1.500 -16.993  0.00  0.00    +0.084 A 
ATOM     16  C   UNL     1     -11.186   2.218 -17.250  0.00  0.00    +0.142 A 
ATOM     17  C   UNL     1      -9.941   1.576 -17.248  0.00  0.00    +0.047 A 
ATOM     18  C   UNL     1      -9.863   0.204 -17.018  0.00  0.00    +0.004 A 
ATOM     19  C   UNL     1     -11.023  -0.526 -16.774  0.00  0.00    +0.002 A 
ATOM     20  C   UNL     1     -12.263   0.121 -16.755  0.00  0.00    +0.028 A 
BRANCH  16  21
ATOM     21  O   UNL     1     -11.224   3.581 -17.420  0.00  0.00    -0.493 OA
ATOM     22  C   UNL     1     -10.580   4.242 -16.330  0.00  0.00    +0.277 C 
ENDBRANCH  16  21
ENDBRANCH  13  15
ENDBRANCH   1  13
TORSDOF 6
ENDMDL
MODEL 7
REMARK VINA RESULT:      -6.0      0.870      6.154
REMARK  Name = min_compound937.pdb
REMARK  8 active torsions:
REMARK  status: ('A' for Active; 'I' for Inactive)
REMARK    1  A    between atoms: _1  and  _2
REMARK    2  A    between atoms: _1  and  _10
REMARK    3  A    between atoms: _2  and  _17
REMARK    4  A    between atoms: _4  and  _17
REMARK    5  A    between atoms: _7  and  _18
REMARK    6  A    between atoms: _12  and  _15
REMARK    7  A    between atoms: _15  and  _16
REMARK    8  A    between atoms: _18  and  _19
REMARK                            x       y       z     vdW  Elec       q    Type
REMARK                         _______ _______ _______ _____ _____    ______ ____
ROOT
ATOM      1  N   UNL     1     -13.250   2.496 -17.643  0.00  0.00    -0.163 NA
ATOM      2  H   UNL     1     -12.971   2.934 -16.765  0.00  0.00    +0.168 HD
ENDROOT
BRANCH   1   3
ATOM      3  N   UNL     1     -13.791   3.412 -18.471  0.00  0.00    -0.261 N 
ATOM      4  H   UNL     1     -14.229   3.048 -19.312  0.00  0.00    +0.168 HD
BRANCH   3   5
ATOM      5  C   UNL     1     -13.110   4.631 -18.683  0.00  0.00    +0.084 A 
ATOM      6  C   UNL     1     -12.876   5.073 -20.004  0.00  0.00    +0.142 A 
ATOM      7  C   UNL     1     -12.273   6.315 -20.227  0.00  0.00    +0.047 A 
ATOM      8  C   UNL     1     -11.912   7.127 -19.148  0.00  0.00    +0.004 A 
ATOM      9  C   UNL     1     -12.152   6.704 -17.843  0.00  0.00    +0.002 A 
ATOM     10  C   UNL     1     -12.752   5.465 -17.614  0.00  0.00    +0.028 A 
BRANCH   6  11
ATOM     11  O   UNL     1     -13.268   4.198 -20.991  0.00  0.00    -0.493 OA
ATOM     12  C   UNL     1     -12.959   4.558 -22.332  0.00  0.00    +0.277 C 
ENDBRANCH   6  11
ENDBRANCH   3   5
ENDBRANCH   1   3
BRANCH   1  13
ATOM     13  N   UNL     1     -12.253   2.042 -18.235  0.00  0.00    -0.261 N 
ATOM     14  H   UNL     1     -12.069   2.187 -19.191  0.00  0.00    +0.168 HD
BRANCH  13  15
ATOM     15  C   UNL     1     -11.418   1.296 -17.375  0.00  0.00    +0.084 A 
ATOM     16  C   UNL     1     -10.978   1.726 -16.108  0.00  0.00    +0.142 A 
ATOM     17  C   UNL     1     -10.214   0.885 -15.289  0.00  0.00    +0.047 A 
ATOM     18  C   UNL     1      -9.853  -0.385 -15.735  0.00  0.00    +0.004 A 
ATOM     19  C   UNL     1     -10.268  -0.824 -16.989  0.00  0.00    +0.002 A 
ATOM     20  C   UNL     1     -11.049   0.009 -17.796  0.00  0.00    +0.028 A 
BRANCH  16  21
ATOM     21  O   UNL     1     -11.368   2.947 -15.616  0.00  0.00    -0.493 OA
ATOM     22  C   UNL     1     -10.294   3.886 -15.691  0.00  0.00    +0.277 C 
ENDBRANCH  16  21
ENDBRANCH  13  15
ENDBRANCH   1  13
TORSDOF 6
ENDMDL
MODEL 8
REMARK VINA RESULT:      -5.9      3.905      5.295
REMARK  Name = min_compound937.pdb
REMARK  8 active torsions:
REMARK  status: ('A' for Active; 'I' for Inactive)
REMARK    1  A    between atoms: _1  and  _2
REMARK    2  A    between atoms: _1  and  _10
REMARK    3  A    between atoms: _2  and  _17
REMARK    4  A    between atoms: _4  and  _17
REMARK    5  A    between atoms: _7  and  _18
REMARK    6  A    between atoms: _12  and  _15
REMARK    7  A    between atoms: _15  and  _16
REMARK    8  A    between atoms: _18  and  _19
REMARK                            x       y       z     vdW  Elec       q    Type
REMARK                         _______ _______ _______ _____ _____    ______ ____
ROOT
ATOM      1  N   UNL     1     -13.732   3.260 -15.277  0.00  0.00    -0.163 NA
ATOM      2  H   UNL     1     -14.003   2.569 -14.578  0.00  0.00    +0.168 HD
ENDROOT
BRANCH   1   3
ATOM      3  N   UNL     1     -13.331   2.648 -16.409  0.00  0.00    -0.261 N 
ATOM      4  H   UNL     1     -14.067   2.394 -17.062  0.00  0.00    +0.168 HD
BRANCH   3   5
ATOM      5  C   UNL     1     -12.295   1.691 -16.341  0.00  0.00    +0.084 A 
ATOM      6  C   UNL     1     -11.057   2.052 -15.765  0.00  0.00    +0.142 A 
ATOM      7  C   UNL     1     -10.049   1.093 -15.620  0.00  0.00    +0.047 A 
ATOM      8  C   UNL     1     -10.268  -0.225 -16.032  0.00  0.00    +0.004 A 
ATOM      9  C   UNL     1     -11.490  -0.591 -16.588  0.00  0.00    +0.002 A 
ATOM     10  C   UNL     1     -12.499   0.361 -16.736  0.00  0.00    +0.028 A 
BRANCH   6  11
ATOM     11  O   UNL     1     -10.946   3.373 -15.396  0.00  0.00    -0.493 OA
ATOM     12  C   UNL     1     -10.167   4.215 -16.236  0.00  0.00    +0.277 C 
ENDBRANCH   6  11
ENDBRANCH   3   5
ENDBRANCH   1   3
BRANCH   1  13
ATOM     13  N   UNL     1     -14.710   3.962 -15.592  0.00  0.00    -0.261 N 
ATOM     14  H   UNL     1     -14.709   4.602 -16.340  0.00  0.00    +0.168 HD
BRANCH  13  15
ATOM     15  C   UNL     1     -15.822   3.734 -14.752  0.00  0.00    +0.084 A 
ATOM     16  C   UNL     1     -15.853   4.000 -13.369  0.00  0.00    +0.142 A 
ATOM     17  C   UNL     1     -17.028   3.814 -12.628  0.00  0.00    +0.047 A 
ATOM     18  C   UNL     1     -18.178   3.333 -13.250  0.00  0.00    +0.004 A 
ATOM     19  C   UNL     1     -18.163   3.052 -14.614  0.00  0.00    +0.002 A 
ATOM     20  C   UNL     1     -16.996   3.259 -15.357  0.00  0.00    +0.028 A 
BRANCH  16  21
ATOM     21  O   UNL     1     -14.755   4.532 -12.740  0.00  0.00    -0.493 OA
ATOM     22  C   UNL     1     -15.013   4.717 -11.347  0.00  0.00    +0.277 C 
ENDBRANCH  16  21
ENDBRANCH  13  15
ENDBRANCH   1  13
TORSDOF 6
ENDMDL
MODEL 9
REMARK VINA RESULT:      -5.9     12.863     14.668
REMARK  Name = min_compound937.pdb
REMARK  8 active torsions:
REMARK  status: ('A' for Active; 'I' for Inactive)
REMARK    1  A    between atoms: _1  and  _2
REMARK    2  A    between atoms: _1  and  _10
REMARK    3  A    between atoms: _2  and  _17
REMARK    4  A    between atoms: _4  and  _17
REMARK    5  A    between atoms: _7  and  _18
REMARK    6  A    between atoms: _12  and  _15
REMARK    7  A    between atoms: _15  and  _16
REMARK    8  A    between atoms: _18  and  _19
REMARK                            x       y       z     vdW  Elec       q    Type
REMARK                         _______ _______ _______ _____ _____    ______ ____
ROOT
ATOM      1  N   UNL     1     -14.314  -1.538  -4.626  0.00  0.00    -0.163 NA
ATOM      2  H   UNL     1     -14.731  -0.629  -4.425  0.00  0.00    +0.168 HD
ENDROOT
BRANCH   1   3
ATOM      3  N   UNL     1     -14.935  -2.503  -3.920  0.00  0.00    -0.261 N 
ATOM      4  H   UNL     1     -15.465  -3.180  -4.462  0.00  0.00    +0.168 HD
BRANCH   3   5
ATOM      5  C   UNL     1     -15.554  -2.167  -2.696  0.00  0.00    +0.084 A 
ATOM      6  C   UNL     1     -16.822  -1.545  -2.708  0.00  0.00    +0.142 A 
ATOM      7  C   UNL     1     -17.480  -1.278  -1.503  0.00  0.00    +0.047 A 
ATOM      8  C   UNL     1     -16.892  -1.636  -0.287  0.00  0.00    +0.004 A 
ATOM      9  C   UNL     1     -15.649  -2.261  -0.267  0.00  0.00    +0.002 A 
ATOM     10  C   UNL     1     -14.987  -2.529  -1.465  0.00  0.00    +0.028 A 
BRANCH   6  11
ATOM     11  O   UNL     1     -17.309  -1.234  -3.958  0.00  0.00    -0.493 OA
ATOM     12  C   UNL     1     -17.717   0.110  -4.175  0.00  0.00    +0.277 C 
ENDBRANCH   6  11
ENDBRANCH   3   5
ENDBRANCH   1   3
BRANCH   1  13
ATOM     13  N   UNL     1     -14.474  -1.830  -5.825  0.00  0.00    -0.261 N 
ATOM     14  H   UNL     1     -14.169  -2.675  -6.230  0.00  0.00    +0.168 HD
BRANCH  13  15
ATOM     15  C   UNL     1     -15.141  -0.810  -6.538  0.00  0.00    +0.084 A 
ATOM     16  C   UNL     1     -14.808   0.557  -6.487  0.00  0.00    +0.142 A 
ATOM     17  C   UNL     1     -15.478   1.490  -7.290  0.00  0.00    +0.047 A 
ATOM     18  C   UNL     1     -16.508   1.076  -8.132  0.00  0.00    +0.004 A 
ATOM     19  C   UNL     1     -16.860  -0.269  -8.187  0.00  0.00    +0.002 A 
ATOM     20  C   UNL     1     -16.176  -1.203  -7.401  0.00  0.00    +0.028 A 
BRANCH  16  21
ATOM     21  O   UNL     1     -13.758   0.988  -5.714  0.00  0.00    -0.493 OA
ATOM     22  C   UNL     1     -14.225   1.814  -4.646  0.00  0.00    +0.277 C 
ENDBRANCH  16  21
ENDBRANCH  13  15
ENDBRANCH   1  13
TORSDOF 6
ENDMDL
