MODEL 1
REMARK VINA RESULT:      -8.6      0.000      0.000
REMARK  Name = min_compound925.pdb
REMARK  6 active torsions:
REMARK  status: ('A' for Active; 'I' for Inactive)
REMARK    1  A    between atoms: _1  and  _13
REMARK    2  A    between atoms: _6  and  _7
REMARK    3  A    between atoms: _9  and  _14
REMARK    4  A    between atoms: _12  and  _21
REMARK    5  A    between atoms: _14  and  _15
REMARK    6  A    between atoms: _21  and  _22
REMARK                            x       y       z     vdW  Elec       q    Type
REMARK                         _______ _______ _______ _____ _____    ______ ____
ROOT
ATOM      1  C   UNL     1     -12.902   3.971 -17.172  0.00  0.00    +0.127 C 
ATOM      2  N   UNL     1     -14.092   4.386 -16.328  0.00  0.00    -0.321 N 
ATOM      3  C   UNL     1     -14.670   5.673 -16.574  0.00  0.00    +0.076 C 
ATOM      4  C   UNL     1     -14.046   6.735 -17.136  0.00  0.00    -0.020 C 
ATOM      5  C   UNL     1     -12.646   6.498 -17.499  0.00  0.00    +0.004 C 
ATOM      6  C   UNL     1     -12.107   5.249 -17.488  0.00  0.00    +0.000 C 
ENDROOT
BRANCH   1  11
ATOM      7  C   UNL     1     -10.459   0.229 -16.187  0.00  0.00    -0.050 A 
ATOM      8  C   UNL     1      -9.657  -1.028 -16.024  0.00  0.00    +0.044 C 
ATOM      9  C   UNL     1     -11.367   0.330 -17.257  0.00  0.00    +0.004 A 
ATOM     10  C   UNL     1     -12.138   1.508 -17.530  0.00  0.00    +0.006 A 
ATOM     11  C   UNL     1     -12.087   2.682 -16.738  0.00  0.00    -0.023 A 
ATOM     12  C   UNL     1     -11.200   2.583 -15.652  0.00  0.00    +0.006 A 
ATOM     13  C   UNL     1     -10.402   1.398 -15.394  0.00  0.00    +0.004 A 
ENDBRANCH   1  11
BRANCH   2  14
ATOM     14  C   UNL     1     -14.891   3.255 -15.802  0.00  0.00    +0.140 C 
BRANCH  14  15
ATOM     15  C   UNL     1     -15.511   3.446 -14.430  0.00  0.00    -0.030 A 
ATOM     16  C   UNL     1     -16.684   2.754 -14.086  0.00  0.00    +0.005 A 
ATOM     17  C   UNL     1     -17.258   2.906 -12.823  0.00  0.00    +0.000 A 
ATOM     18  C   UNL     1     -16.667   3.753 -11.888  0.00  0.00    +0.000 A 
ATOM     19  C   UNL     1     -15.498   4.439 -12.213  0.00  0.00    +0.000 A 
ATOM     20  C   UNL     1     -14.916   4.280 -13.472  0.00  0.00    +0.005 A 
ENDBRANCH  14  15
ENDBRANCH   2  14
BRANCH   4  21
ATOM     21  C   UNL     1     -14.739   8.052 -17.326  0.00  0.00    +0.114 C 
BRANCH  21  22
ATOM     22  N   UNL     1     -15.433   9.368 -17.516  0.00  0.00    -0.326 NA
ATOM     23  H   UNL     1     -15.283   9.697 -18.470  0.00  0.00    +0.119 HD
ATOM     24  H   UNL     1     -16.433   9.253 -17.349  0.00  0.00    +0.119 HD
ENDBRANCH  21  22
ENDBRANCH   4  21
TORSDOF 5
ENDMDL
MODEL 2
REMARK VINA RESULT:      -7.8      1.784      5.520
REMARK  Name = min_compound925.pdb
REMARK  6 active torsions:
REMARK  status: ('A' for Active; 'I' for Inactive)
REMARK    1  A    between atoms: _1  and  _13
REMARK    2  A    between atoms: _6  and  _7
REMARK    3  A    between atoms: _9  and  _14
REMARK    4  A    between atoms: _12  and  _21
REMARK    5  A    between atoms: _14  and  _15
REMARK    6  A    between atoms: _21  and  _22
REMARK                            x       y       z     vdW  Elec       q    Type
REMARK                         _______ _______ _______ _____ _____    ______ ____
ROOT
ATOM      1  C   UNL     1     -14.017   4.951 -16.390  0.00  0.00    +0.127 C 
ATOM      2  N   UNL     1     -12.759   4.253 -16.870  0.00  0.00    -0.321 N 
ATOM      3  C   UNL     1     -12.153   4.728 -18.078  0.00  0.00    +0.076 C 
ATOM      4  C   UNL     1     -12.773   5.405 -19.072  0.00  0.00    -0.020 C 
ATOM      5  C   UNL     1     -14.202   5.643 -18.849  0.00  0.00    +0.004 C 
ATOM      6  C   UNL     1     -14.784   5.409 -17.641  0.00  0.00    +0.000 C 
ENDROOT
BRANCH   1  11
ATOM      7  C   UNL     1     -16.537   3.257 -12.966  0.00  0.00    -0.050 A 
ATOM      8  C   UNL     1     -17.384   2.857 -11.794  0.00  0.00    +0.044 C 
ATOM      9  C   UNL     1     -15.751   4.420 -12.877  0.00  0.00    +0.004 A 
ATOM     10  C   UNL     1     -14.951   4.917 -13.960  0.00  0.00    +0.006 A 
ATOM     11  C   UNL     1     -14.848   4.277 -15.220  0.00  0.00    -0.023 A 
ATOM     12  C   UNL     1     -15.612   3.100 -15.310  0.00  0.00    +0.006 A 
ATOM     13  C   UNL     1     -16.440   2.614 -14.220  0.00  0.00    +0.004 A 
ENDBRANCH   1  11
BRANCH   2  14
ATOM     14  C   UNL     1     -11.969   3.611 -15.795  0.00  0.00    +0.140 C 
BRANCH  14  15
ATOM     15  C   UNL     1     -11.636   2.143 -15.987  0.00  0.00    -0.030 A 
ATOM     16  C   UNL     1     -12.581   1.275 -16.559  0.00  0.00    +0.005 A 
ATOM     17  C   UNL     1     -12.284  -0.074 -16.757  0.00  0.00    +0.000 A 
ATOM     18  C   UNL     1     -11.038  -0.574 -16.383  0.00  0.00    +0.000 A 
ATOM     19  C   UNL     1     -10.087   0.278 -15.823  0.00  0.00    +0.000 A 
ATOM     20  C   UNL     1     -10.378   1.630 -15.634  0.00  0.00    +0.005 A 
ENDBRANCH  14  15
ENDBRANCH   2  14
BRANCH   4  21
ATOM     21  C   UNL     1     -12.046   5.836 -20.312  0.00  0.00    +0.114 C 
BRANCH  21  22
ATOM     22  N   UNL     1     -11.319   6.266 -21.551  0.00  0.00    -0.326 NA
ATOM     23  H   UNL     1     -11.338   5.510 -22.236  0.00  0.00    +0.119 HD
ATOM     24  H   UNL     1     -11.774   7.092 -21.943  0.00  0.00    +0.119 HD
ENDBRANCH  21  22
ENDBRANCH   4  21
TORSDOF 5
ENDMDL
MODEL 3
REMARK VINA RESULT:      -7.8      2.512      6.317
REMARK  Name = min_compound925.pdb
REMARK  6 active torsions:
REMARK  status: ('A' for Active; 'I' for Inactive)
REMARK    1  A    between atoms: _1  and  _13
REMARK    2  A    between atoms: _6  and  _7
REMARK    3  A    between atoms: _9  and  _14
REMARK    4  A    between atoms: _12  and  _21
REMARK    5  A    between atoms: _14  and  _15
REMARK    6  A    between atoms: _21  and  _22
REMARK                            x       y       z     vdW  Elec       q    Type
REMARK                         _______ _______ _______ _____ _____    ______ ____
ROOT
ATOM      1  C   UNL     1     -14.436   3.588 -17.687  0.00  0.00    +0.127 C 
ATOM      2  N   UNL     1     -13.327   2.575 -17.902  0.00  0.00    -0.321 N 
ATOM      3  C   UNL     1     -12.919   2.308 -19.249  0.00  0.00    +0.076 C 
ATOM      4  C   UNL     1     -13.666   2.493 -20.362  0.00  0.00    -0.020 C 
ATOM      5  C   UNL     1     -15.015   3.008 -20.113  0.00  0.00    +0.004 C 
ATOM      6  C   UNL     1     -15.386   3.478 -18.891  0.00  0.00    +0.000 C 
ENDROOT
BRANCH   1  11
ATOM      7  C   UNL     1     -16.206   3.643 -13.467  0.00  0.00    -0.050 A 
ATOM      8  C   UNL     1     -16.773   3.498 -12.086  0.00  0.00    +0.044 C 
ATOM      9  C   UNL     1     -16.401   2.608 -14.400  0.00  0.00    +0.004 A 
ATOM     10  C   UNL     1     -15.854   2.626 -15.726  0.00  0.00    +0.006 A 
ATOM     11  C   UNL     1     -15.083   3.697 -16.243  0.00  0.00    -0.023 A 
ATOM     12  C   UNL     1     -14.902   4.748 -15.326  0.00  0.00    +0.006 A 
ATOM     13  C   UNL     1     -15.438   4.713 -13.976  0.00  0.00    +0.004 A 
ENDBRANCH   1  11
BRANCH   2  14
ATOM     14  C   UNL     1     -12.397   2.436 -16.758  0.00  0.00    +0.140 C 
BRANCH  14  15
ATOM     15  C   UNL     1     -11.440   1.260 -16.804  0.00  0.00    -0.030 A 
ATOM     16  C   UNL     1     -11.871  -0.015 -16.402  0.00  0.00    +0.005 A 
ATOM     17  C   UNL     1     -11.007  -1.110 -16.455  0.00  0.00    +0.000 A 
ATOM     18  C   UNL     1      -9.700  -0.944 -16.908  0.00  0.00    +0.000 A 
ATOM     19  C   UNL     1      -9.261   0.314 -17.318  0.00  0.00    +0.000 A 
ATOM     20  C   UNL     1     -10.127   1.409 -17.277  0.00  0.00    +0.005 A 
ENDBRANCH  14  15
ENDBRANCH   2  14
BRANCH   4  21
ATOM     21  C   UNL     1     -13.148   2.155 -21.729  0.00  0.00    +0.114 C 
BRANCH  21  22
ATOM     22  N   UNL     1     -12.630   1.818 -23.095  0.00  0.00    -0.326 NA
ATOM     23  H   UNL     1     -13.326   1.263 -23.595  0.00  0.00    +0.119 HD
ATOM     24  H   UNL     1     -12.447   2.678 -23.612  0.00  0.00    +0.119 HD
ENDBRANCH  21  22
ENDBRANCH   4  21
TORSDOF 5
ENDMDL
MODEL 4
REMARK VINA RESULT:      -7.3      1.974      5.770
REMARK  Name = min_compound925.pdb
REMARK  6 active torsions:
REMARK  status: ('A' for Active; 'I' for Inactive)
REMARK    1  A    between atoms: _1  and  _13
REMARK    2  A    between atoms: _6  and  _7
REMARK    3  A    between atoms: _9  and  _14
REMARK    4  A    between atoms: _12  and  _21
REMARK    5  A    between atoms: _14  and  _15
REMARK    6  A    between atoms: _21  and  _22
REMARK                            x       y       z     vdW  Elec       q    Type
REMARK                         _______ _______ _______ _____ _____    ______ ____
ROOT
ATOM      1  C   UNL     1     -14.847   5.030 -16.545  0.00  0.00    +0.127 C 
ATOM      2  N   UNL     1     -14.607   3.659 -15.941  0.00  0.00    -0.321 N 
ATOM      3  C   UNL     1     -15.390   3.286 -14.801  0.00  0.00    +0.076 C 
ATOM      4  C   UNL     1     -15.987   4.132 -13.929  0.00  0.00    -0.020 C 
ATOM      5  C   UNL     1     -15.775   5.553 -14.217  0.00  0.00    +0.004 C 
ATOM      6  C   UNL     1     -15.228   5.971 -15.390  0.00  0.00    +0.000 C 
ENDROOT
BRANCH   1  11
ATOM      7  C   UNL     1     -12.082   6.720 -19.776  0.00  0.00    -0.050 A 
ATOM      8  C   UNL     1     -11.310   7.309 -20.920  0.00  0.00    +0.044 C 
ATOM      9  C   UNL     1     -13.320   6.103 -20.030  0.00  0.00    +0.004 A 
ATOM     10  C   UNL     1     -14.158   5.560 -18.999  0.00  0.00    +0.006 A 
ATOM     11  C   UNL     1     -13.815   5.565 -17.624  0.00  0.00    -0.023 A 
ATOM     12  C   UNL     1     -12.567   6.157 -17.363  0.00  0.00    +0.006 A 
ATOM     13  C   UNL     1     -11.734   6.728 -18.406  0.00  0.00    +0.004 A 
ENDBRANCH   1  11
BRANCH   2  14
ATOM     14  C   UNL     1     -14.081   2.656 -16.894  0.00  0.00    +0.140 C 
BRANCH  14  15
ATOM     15  C   UNL     1     -12.752   2.016 -16.537  0.00  0.00    -0.030 A 
ATOM     16  C   UNL     1     -11.781   2.753 -15.839  0.00  0.00    +0.005 A 
ATOM     17  C   UNL     1     -10.561   2.173 -15.489  0.00  0.00    +0.000 A 
ATOM     18  C   UNL     1     -10.295   0.849 -15.832  0.00  0.00    +0.000 A 
ATOM     19  C   UNL     1     -11.253   0.103 -16.517  0.00  0.00    +0.000 A 
ATOM     20  C   UNL     1     -12.479   0.677 -16.858  0.00  0.00    +0.005 A 
ENDBRANCH  14  15
ENDBRANCH   2  14
BRANCH   4  21
ATOM     21  C   UNL     1     -16.767   3.633 -12.749  0.00  0.00    +0.114 C 
BRANCH  21  22
ATOM     22  N   UNL     1     -17.547   3.135 -11.569  0.00  0.00    -0.326 NA
ATOM     23  H   UNL     1     -16.904   2.758 -10.871  0.00  0.00    +0.119 HD
ATOM     24  H   UNL     1     -18.078   3.905 -11.162  0.00  0.00    +0.119 HD
ENDBRANCH  21  22
ENDBRANCH   4  21
TORSDOF 5
ENDMDL
MODEL 5
REMARK VINA RESULT:      -7.1      5.718      9.189
REMARK  Name = min_compound925.pdb
REMARK  6 active torsions:
REMARK  status: ('A' for Active; 'I' for Inactive)
REMARK    1  A    between atoms: _1  and  _13
REMARK    2  A    between atoms: _6  and  _7
REMARK    3  A    between atoms: _9  and  _14
REMARK    4  A    between atoms: _12  and  _21
REMARK    5  A    between atoms: _14  and  _15
REMARK    6  A    between atoms: _21  and  _22
REMARK                            x       y       z     vdW  Elec       q    Type
REMARK                         _______ _______ _______ _____ _____    ______ ____
ROOT
ATOM      1  C   UNL     1     -17.374   4.301  -9.021  0.00  0.00    +0.127 C 
ATOM      2  N   UNL     1     -16.915   3.243  -8.036  0.00  0.00    -0.321 N 
ATOM      3  C   UNL     1     -17.252   3.425  -6.655  0.00  0.00    +0.076 C 
ATOM      4  C   UNL     1     -17.531   4.602  -6.048  0.00  0.00    -0.020 C 
ATOM      5  C   UNL     1     -17.459   5.772  -6.927  0.00  0.00    +0.004 C 
ATOM      6  C   UNL     1     -17.355   5.647  -8.278  0.00  0.00    +0.000 C 
ENDROOT
BRANCH   1  11
ATOM      7  C   UNL     1     -15.429   4.109 -13.159  0.00  0.00    -0.050 A 
ATOM      8  C   UNL     1     -14.648   4.054 -14.438  0.00  0.00    +0.044 C 
ATOM      9  C   UNL     1     -14.893   4.801 -12.057  0.00  0.00    +0.004 A 
ATOM     10  C   UNL     1     -15.536   4.865 -10.776  0.00  0.00    +0.006 A 
ATOM     11  C   UNL     1     -16.786   4.262 -10.493  0.00  0.00    -0.023 A 
ATOM     12  C   UNL     1     -17.342   3.588 -11.595  0.00  0.00    +0.006 A 
ATOM     13  C   UNL     1     -16.676   3.505 -12.883  0.00  0.00    +0.004 A 
ENDBRANCH   1  11
BRANCH   2  14
ATOM     14  C   UNL     1     -16.726   1.899  -8.627  0.00  0.00    +0.140 C 
BRANCH  14  15
ATOM     15  C   UNL     1     -15.980   0.885  -7.780  0.00  0.00    -0.030 A 
ATOM     16  C   UNL     1     -16.548  -0.374  -7.527  0.00  0.00    +0.005 A 
ATOM     17  C   UNL     1     -15.867  -1.324  -6.763  0.00  0.00    +0.000 A 
ATOM     18  C   UNL     1     -14.610  -1.025  -6.240  0.00  0.00    +0.000 A 
ATOM     19  C   UNL     1     -14.031   0.218  -6.490  0.00  0.00    +0.000 A 
ATOM     20  C   UNL     1     -14.706   1.165  -7.264  0.00  0.00    +0.005 A 
ENDBRANCH  14  15
ENDBRANCH   2  14
BRANCH   4  21
ATOM     21  C   UNL     1     -17.849   4.683  -4.585  0.00  0.00    +0.114 C 
BRANCH  21  22
ATOM     22  N   UNL     1     -18.167   4.764  -3.121  0.00  0.00    -0.326 NA
ATOM     23  H   UNL     1     -18.252   5.742  -2.845  0.00  0.00    +0.119 HD
ATOM     24  H   UNL     1     -19.047   4.280  -2.937  0.00  0.00    +0.119 HD
ENDBRANCH  21  22
ENDBRANCH   4  21
TORSDOF 5
ENDMDL
MODEL 6
REMARK VINA RESULT:      -7.1      2.495      5.583
REMARK  Name = min_compound925.pdb
REMARK  6 active torsions:
REMARK  status: ('A' for Active; 'I' for Inactive)
REMARK    1  A    between atoms: _1  and  _13
REMARK    2  A    between atoms: _6  and  _7
REMARK    3  A    between atoms: _9  and  _14
REMARK    4  A    between atoms: _12  and  _21
REMARK    5  A    between atoms: _14  and  _15
REMARK    6  A    between atoms: _21  and  _22
REMARK                            x       y       z     vdW  Elec       q    Type
REMARK                         _______ _______ _______ _____ _____    ______ ____
ROOT
ATOM      1  C   UNL     1     -14.669   6.730 -17.250  0.00  0.00    +0.127 C 
ATOM      2  N   UNL     1     -14.623   5.569 -16.274  0.00  0.00    -0.321 N 
ATOM      3  C   UNL     1     -15.358   5.695 -15.051  0.00  0.00    +0.076 C 
ATOM      4  C   UNL     1     -15.720   6.853 -14.451  0.00  0.00    -0.020 C 
ATOM      5  C   UNL     1     -15.287   8.065 -15.153  0.00  0.00    +0.004 C 
ATOM      6  C   UNL     1     -14.778   8.016 -16.414  0.00  0.00    +0.000 C 
ENDROOT
BRANCH   1  11
ATOM      7  C   UNL     1     -11.940   6.862 -20.920  0.00  0.00    -0.050 A 
ATOM      8  C   UNL     1     -11.179   6.940 -22.211  0.00  0.00    +0.044 C 
ATOM      9  C   UNL     1     -13.285   6.451 -20.942  0.00  0.00    +0.004 A 
ATOM     10  C   UNL     1     -14.113   6.397 -19.771  0.00  0.00    +0.006 A 
ATOM     11  C   UNL     1     -13.657   6.725 -18.470  0.00  0.00    -0.023 A 
ATOM     12  C   UNL     1     -12.306   7.115 -18.435  0.00  0.00    +0.006 A 
ATOM     13  C   UNL     1     -11.479   7.192 -19.626  0.00  0.00    +0.004 A 
ENDBRANCH   1  11
BRANCH   2  14
ATOM     14  C   UNL     1     -14.365   4.254 -16.903  0.00  0.00    +0.140 C 
BRANCH  14  15
ATOM     15  C   UNL     1     -13.066   3.566 -16.524  0.00  0.00    -0.030 A 
ATOM     16  C   UNL     1     -11.946   4.330 -16.158  0.00  0.00    +0.005 A 
ATOM     17  C   UNL     1     -10.750   3.713 -15.790  0.00  0.00    +0.000 A 
ATOM     18  C   UNL     1     -10.658   2.323 -15.785  0.00  0.00    +0.000 A 
ATOM     19  C   UNL     1     -11.764   1.551 -16.138  0.00  0.00    +0.000 A 
ATOM     20  C   UNL     1     -12.965   2.167 -16.495  0.00  0.00    +0.005 A 
ENDBRANCH  14  15
ENDBRANCH   2  14
BRANCH   4  21
ATOM     21  C   UNL     1     -16.470   6.872 -13.153  0.00  0.00    +0.114 C 
BRANCH  21  22
ATOM     22  N   UNL     1     -17.221   6.891 -11.854  0.00  0.00    -0.326 NA
ATOM     23  H   UNL     1     -16.598   7.195 -11.106  0.00  0.00    +0.119 HD
ATOM     24  H   UNL     1     -18.007   7.537 -11.925  0.00  0.00    +0.119 HD
ENDBRANCH  21  22
ENDBRANCH   4  21
TORSDOF 5
ENDMDL
MODEL 7
REMARK VINA RESULT:      -6.9      2.291      6.178
REMARK  Name = min_compound925.pdb
REMARK  6 active torsions:
REMARK  status: ('A' for Active; 'I' for Inactive)
REMARK    1  A    between atoms: _1  and  _13
REMARK    2  A    between atoms: _6  and  _7
REMARK    3  A    between atoms: _9  and  _14
REMARK    4  A    between atoms: _12  and  _21
REMARK    5  A    between atoms: _14  and  _15
REMARK    6  A    between atoms: _21  and  _22
REMARK                            x       y       z     vdW  Elec       q    Type
REMARK                         _______ _______ _______ _____ _____    ______ ____
ROOT
ATOM      1  C   UNL     1     -15.648   4.225 -15.635  0.00  0.00    +0.127 C 
ATOM      2  N   UNL     1     -14.616   3.405 -16.385  0.00  0.00    -0.321 N 
ATOM      3  C   UNL     1     -14.627   3.466 -17.816  0.00  0.00    +0.076 C 
ATOM      4  C   UNL     1     -15.685   3.792 -18.595  0.00  0.00    -0.020 C 
ATOM      5  C   UNL     1     -16.914   4.094 -17.857  0.00  0.00    +0.004 C 
ATOM      6  C   UNL     1     -16.914   4.261 -16.506  0.00  0.00    +0.000 C 
ENDROOT
BRANCH   1  11
ATOM      7  C   UNL     1     -16.191   3.753 -11.115  0.00  0.00    -0.050 A 
ATOM      8  C   UNL     1     -16.328   3.755  -9.622  0.00  0.00    +0.044 C 
ATOM      9  C   UNL     1     -15.268   4.625 -11.720  0.00  0.00    +0.004 A 
ATOM     10  C   UNL     1     -15.101   4.737 -13.141  0.00  0.00    +0.006 A 
ATOM     11  C   UNL     1     -15.828   3.965 -14.081  0.00  0.00    -0.023 A 
ATOM     12  C   UNL     1     -16.737   3.072 -13.485  0.00  0.00    +0.006 A 
ATOM     13  C   UNL     1     -16.920   2.980 -12.047  0.00  0.00    +0.004 A 
ENDBRANCH   1  11
BRANCH   2  14
ATOM     14  C   UNL     1     -13.377   3.138 -15.620  0.00  0.00    +0.140 C 
BRANCH  14  15
ATOM     15  C   UNL     1     -12.372   2.202 -16.267  0.00  0.00    -0.030 A 
ATOM     16  C   UNL     1     -11.107   2.682 -16.647  0.00  0.00    +0.005 A 
ATOM     17  C   UNL     1     -10.165   1.831 -17.228  0.00  0.00    +0.000 A 
ATOM     18  C   UNL     1     -10.477   0.489 -17.439  0.00  0.00    +0.000 A 
ATOM     19  C   UNL     1     -11.725  -0.002 -17.059  0.00  0.00    +0.000 A 
ATOM     20  C   UNL     1     -12.664   0.845 -16.467  0.00  0.00    +0.005 A 
ENDBRANCH  14  15
ENDBRANCH   2  14
BRANCH   4  21
ATOM     21  C   UNL     1     -15.594   3.800 -20.092  0.00  0.00    +0.114 C 
BRANCH  21  22
ATOM     22  N   UNL     1     -15.504   3.809 -21.589  0.00  0.00    -0.326 NA
ATOM     23  H   UNL     1     -15.480   4.772 -21.923  0.00  0.00    +0.119 HD
ATOM     24  H   UNL     1     -14.653   3.327 -21.881  0.00  0.00    +0.119 HD
ENDBRANCH  21  22
ENDBRANCH   4  21
TORSDOF 5
ENDMDL
MODEL 8
REMARK VINA RESULT:      -6.8      1.852      5.640
REMARK  Name = min_compound925.pdb
REMARK  6 active torsions:
REMARK  status: ('A' for Active; 'I' for Inactive)
REMARK    1  A    between atoms: _1  and  _13
REMARK    2  A    between atoms: _6  and  _7
REMARK    3  A    between atoms: _9  and  _14
REMARK    4  A    between atoms: _12  and  _21
REMARK    5  A    between atoms: _14  and  _15
REMARK    6  A    between atoms: _21  and  _22
REMARK                            x       y       z     vdW  Elec       q    Type
REMARK                         _______ _______ _______ _____ _____    ______ ____
ROOT
ATOM      1  C   UNL     1     -12.984   4.649 -16.687  0.00  0.00    +0.127 C 
ATOM      2  N   UNL     1     -13.527   3.233 -16.687  0.00  0.00    -0.321 N 
ATOM      3  C   UNL     1     -12.643   2.179 -16.288  0.00  0.00    +0.076 C 
ATOM      4  C   UNL     1     -11.291   2.208 -16.335  0.00  0.00    -0.020 C 
ATOM      5  C   UNL     1     -10.726   3.454 -16.861  0.00  0.00    +0.004 C 
ATOM      6  C   UNL     1     -11.493   4.560 -17.055  0.00  0.00    +0.000 C 
ENDROOT
BRANCH   1  11
ATOM      7  C   UNL     1     -15.624   7.724 -18.813  0.00  0.00    -0.050 A 
ATOM      8  C   UNL     1     -16.526   8.613 -19.616  0.00  0.00    +0.044 C 
ATOM      9  C   UNL     1     -14.941   6.677 -19.459  0.00  0.00    +0.004 A 
ATOM     10  C   UNL     1     -14.099   5.740 -18.771  0.00  0.00    +0.006 A 
ATOM     11  C   UNL     1     -13.849   5.785 -17.377  0.00  0.00    -0.023 A 
ATOM     12  C   UNL     1     -14.508   6.843 -16.726  0.00  0.00    +0.006 A 
ATOM     13  C   UNL     1     -15.378   7.774 -17.422  0.00  0.00    +0.004 A 
ENDBRANCH   1  11
BRANCH   2  14
ATOM     14  C   UNL     1     -14.992   3.142 -16.500  0.00  0.00    +0.140 C 
BRANCH  14  15
ATOM     15  C   UNL     1     -15.505   3.315 -15.081  0.00  0.00    -0.030 A 
ATOM     16  C   UNL     1     -16.625   2.589 -14.645  0.00  0.00    +0.005 A 
ATOM     17  C   UNL     1     -17.099   2.724 -13.339  0.00  0.00    +0.000 A 
ATOM     18  C   UNL     1     -16.458   3.588 -12.453  0.00  0.00    +0.000 A 
ATOM     19  C   UNL     1     -15.340   4.308 -12.870  0.00  0.00    +0.000 A 
ATOM     20  C   UNL     1     -14.858   4.166 -14.173  0.00  0.00    +0.005 A 
ENDBRANCH  14  15
ENDBRANCH   2  14
BRANCH   4  21
ATOM     21  C   UNL     1     -10.457   1.034 -15.913  0.00  0.00    +0.114 C 
BRANCH  21  22
ATOM     22  N   UNL     1      -9.624  -0.140 -15.492  0.00  0.00    -0.326 NA
ATOM     23  H   UNL     1      -9.391  -0.702 -16.310  0.00  0.00    +0.119 HD
ATOM     24  H   UNL     1      -8.766   0.193 -15.051  0.00  0.00    +0.119 HD
ENDBRANCH  21  22
ENDBRANCH   4  21
TORSDOF 5
ENDMDL
MODEL 9
REMARK VINA RESULT:      -6.6      6.795      9.157
REMARK  Name = min_compound925.pdb
REMARK  6 active torsions:
REMARK  status: ('A' for Active; 'I' for Inactive)
REMARK    1  A    between atoms: _1  and  _13
REMARK    2  A    between atoms: _6  and  _7
REMARK    3  A    between atoms: _9  and  _14
REMARK    4  A    between atoms: _12  and  _21
REMARK    5  A    between atoms: _14  and  _15
REMARK    6  A    between atoms: _21  and  _22
REMARK                            x       y       z     vdW  Elec       q    Type
REMARK                         _______ _______ _______ _____ _____    ______ ____
ROOT
ATOM      1  C   UNL     1     -16.761   2.455  -9.127  0.00  0.00    +0.127 C 
ATOM      2  N   UNL     1     -17.764   3.419  -8.520  0.00  0.00    -0.321 N 
ATOM      3  C   UNL     1     -18.109   4.586  -9.275  0.00  0.00    +0.076 C 
ATOM      4  C   UNL     1     -17.354   5.170 -10.235  0.00  0.00    -0.020 C 
ATOM      5  C   UNL     1     -16.067   4.515 -10.481  0.00  0.00    +0.004 C 
ATOM      6  C   UNL     1     -15.774   3.295  -9.955  0.00  0.00    +0.000 C 
ENDROOT
BRANCH   1  11
ATOM      7  C   UNL     1     -15.057  -0.664  -6.245  0.00  0.00    -0.050 A 
ATOM      8  C   UNL     1     -14.463  -1.562  -5.201  0.00  0.00    +0.044 C 
ATOM      9  C   UNL     1     -14.571   0.650  -6.376  0.00  0.00    +0.004 A 
ATOM     10  C   UNL     1     -15.109   1.602  -7.305  0.00  0.00    +0.006 A 
ATOM     11  C   UNL     1     -16.165   1.312  -8.204  0.00  0.00    -0.023 A 
ATOM     12  C   UNL     1     -16.642  -0.007  -8.098  0.00  0.00    +0.006 A 
ATOM     13  C   UNL     1     -16.111  -0.959  -7.139  0.00  0.00    +0.004 A 
ENDBRANCH   1  11
BRANCH   2  14
ATOM     14  C   UNL     1     -18.706   2.796  -7.563  0.00  0.00    +0.140 C 
BRANCH  14  15
ATOM     15  C   UNL     1     -18.217   2.648  -6.133  0.00  0.00    -0.030 A 
ATOM     16  C   UNL     1     -18.504   1.480  -5.409  0.00  0.00    +0.005 A 
ATOM     17  C   UNL     1     -18.048   1.321  -4.099  0.00  0.00    +0.000 A 
ATOM     18  C   UNL     1     -17.301   2.331  -3.496  0.00  0.00    +0.000 A 
ATOM     19  C   UNL     1     -17.001   3.492  -4.206  0.00  0.00    +0.000 A 
ATOM     20  C   UNL     1     -17.446   3.648  -5.521  0.00  0.00    +0.005 A 
ENDBRANCH  14  15
ENDBRANCH   2  14
BRANCH   4  21
ATOM     21  C   UNL     1     -17.802   6.411 -10.950  0.00  0.00    +0.114 C 
BRANCH  21  22
ATOM     22  N   UNL     1     -18.250   7.651 -11.664  0.00  0.00    -0.326 NA
ATOM     23  H   UNL     1     -18.177   7.508 -12.672  0.00  0.00    +0.119 HD
ATOM     24  H   UNL     1     -19.220   7.853 -11.419  0.00  0.00    +0.119 HD
ENDBRANCH  21  22
ENDBRANCH   4  21
TORSDOF 5
ENDMDL
