MODEL 1
REMARK VINA RESULT:      -7.4      0.000      0.000
REMARK  Name = min_compound969.pdb
REMARK  5 active torsions:
REMARK  status: ('A' for Active; 'I' for Inactive)
REMARK    1  A    between atoms: _2  and  _5
REMARK    2  A    between atoms: _10  and  _16
REMARK    3  A    between atoms: _12  and  _17
REMARK    4  A    between atoms: _14  and  _17
REMARK    5  A    between atoms: _15  and  _19
REMARK                            x       y       z     vdW  Elec       q    Type
REMARK                         _______ _______ _______ _____ _____    ______ ____
ROOT
ATOM      1  N   UNL     1     -14.513  -3.168  -2.983  0.00  0.00    -0.284 N 
ATOM      2  H   UNL     1     -14.113  -3.559  -3.829  0.00  0.00    +0.155 HD
ATOM      3  C   UNL     1     -14.153  -3.724  -1.777  0.00  0.00    +0.229 C 
ATOM      4  O   UNL     1     -14.297  -3.025  -0.755  0.00  0.00    -0.275 OA
ENDROOT
BRANCH   1   7
ATOM      5  C   UNL     1     -14.902   0.682  -3.450  0.00  0.00    +0.057 A 
ATOM      6  C   UNL     1     -14.330  -0.630  -3.276  0.00  0.00    +0.037 A 
ATOM      7  C   UNL     1     -15.091  -1.829  -3.115  0.00  0.00    +0.052 A 
ATOM      8  C   UNL     1     -16.482  -1.679  -3.091  0.00  0.00    +0.062 A 
ATOM      9 CL   UNL     1     -17.520  -3.051  -2.897  0.00  0.00    -0.082 Cl
ATOM     10  C   UNL     1     -17.076  -0.415  -3.256  0.00  0.00    +0.022 A 
ATOM     11  C   UNL     1     -16.301   0.747  -3.430  0.00  0.00    +0.014 A 
BRANCH   5  13
ATOM     12  F   UNL     1     -12.919   1.140  -2.833  0.00  0.00    -0.166 F 
ATOM     13  C   UNL     1     -13.963   1.851  -3.504  0.00  0.00    +0.417 C 
ATOM     14  F   UNL     1     -13.686   1.636  -4.889  0.00  0.00    -0.166 F 
ATOM     15  F   UNL     1     -13.025   3.019  -3.559  0.00  0.00    -0.166 F 
ENDBRANCH   5  13
ENDBRANCH   1   7
BRANCH   3  16
ATOM     16  C   UNL     1     -13.423  -5.027  -1.634  0.00  0.00    +0.224 C 
BRANCH  16  17
ATOM     17  C   UNL     1     -12.440  -4.650  -0.453  0.00  0.00    +0.282 C 
ATOM     18  N   UNL     1     -11.555  -3.606  -0.636  0.00  0.00    -0.288 N 
ATOM     19  H   UNL     1     -12.039  -2.775  -0.981  0.00  0.00    +0.301 HD
ATOM     20  H   UNL     1     -11.114  -3.399   0.258  0.00  0.00    +0.301 HD
ATOM     21  N   UNL     1     -12.481  -5.380   0.624  0.00  0.00    -0.136 N 
ATOM     22  H   UNL     1     -13.087  -6.144   0.764  0.00  0.00    +0.348 HD
BRANCH  21  23
ATOM     23  O   UNL     1     -11.535  -4.923   1.558  0.00  0.00    -0.210 OA
ATOM     24  H   UNL     1     -11.573  -3.956   1.434  0.00  0.00    +0.271 HD
ENDBRANCH  21  23
ENDBRANCH  16  17
ENDBRANCH   3  16
TORSDOF 5
ENDMDL
MODEL 2
REMARK VINA RESULT:      -7.0      6.409      8.596
REMARK  Name = min_compound969.pdb
REMARK  5 active torsions:
REMARK  status: ('A' for Active; 'I' for Inactive)
REMARK    1  A    between atoms: _2  and  _5
REMARK    2  A    between atoms: _10  and  _16
REMARK    3  A    between atoms: _12  and  _17
REMARK    4  A    between atoms: _14  and  _17
REMARK    5  A    between atoms: _15  and  _19
REMARK                            x       y       z     vdW  Elec       q    Type
REMARK                         _______ _______ _______ _____ _____    ______ ____
ROOT
ATOM      1  N   UNL     1     -17.109   1.596  -7.778  0.00  0.00    -0.284 N 
ATOM      2  H   UNL     1     -18.050   1.613  -7.396  0.00  0.00    +0.155 HD
ATOM      3  C   UNL     1     -16.819   2.442  -8.824  0.00  0.00    +0.229 C 
ATOM      4  O   UNL     1     -15.621   2.725  -9.019  0.00  0.00    -0.275 OA
ENDROOT
BRANCH   1   7
ATOM      5  C   UNL     1     -14.400   1.062  -5.029  0.00  0.00    +0.057 A 
ATOM      6  C   UNL     1     -15.374   1.675  -5.897  0.00  0.00    +0.037 A 
ATOM      7  C   UNL     1     -16.089   0.986  -6.924  0.00  0.00    +0.052 A 
ATOM      8  C   UNL     1     -15.771  -0.366  -7.097  0.00  0.00    +0.062 A 
ATOM      9 CL   UNL     1     -16.562  -1.316  -8.310  0.00  0.00    -0.082 Cl
ATOM     10  C   UNL     1     -14.827  -0.999  -6.270  0.00  0.00    +0.022 A 
ATOM     11  C   UNL     1     -14.150  -0.297  -5.254  0.00  0.00    +0.014 A 
BRANCH   5  13
ATOM     12  F   UNL     1     -14.872   2.504  -3.539  0.00  0.00    -0.166 F 
ATOM     13  C   UNL     1     -13.665   1.949  -4.068  0.00  0.00    +0.417 C 
ATOM     14  F   UNL     1     -13.379   0.858  -3.191  0.00  0.00    -0.166 F 
ATOM     15  F   UNL     1     -12.930   2.836  -3.108  0.00  0.00    -0.166 F 
ENDBRANCH   5  13
ENDBRANCH   1   7
BRANCH   3  16
ATOM     16  C   UNL     1     -17.851   3.194  -9.611  0.00  0.00    +0.224 C 
BRANCH  16  17
ATOM     17  C   UNL     1     -17.156   4.614  -9.668  0.00  0.00    +0.282 C 
ATOM     18  N   UNL     1     -16.699   5.079 -10.885  0.00  0.00    -0.288 N 
ATOM     19  H   UNL     1     -17.425   5.004 -11.599  0.00  0.00    +0.301 HD
ATOM     20  H   UNL     1     -16.426   6.053 -10.774  0.00  0.00    +0.301 HD
ATOM     21  N   UNL     1     -17.004   5.258  -8.547  0.00  0.00    -0.136 N 
ATOM     22  H   UNL     1     -17.301   4.933  -7.666  0.00  0.00    +0.348 HD
BRANCH  21  23
ATOM     23  O   UNL     1     -16.355   6.484  -8.774  0.00  0.00    -0.210 OA
ATOM     24  H   UNL     1     -15.718   6.520  -8.036  0.00  0.00    +0.271 HD
ENDBRANCH  21  23
ENDBRANCH  16  17
ENDBRANCH   3  16
TORSDOF 5
ENDMDL
MODEL 3
REMARK VINA RESULT:      -6.6     15.862     17.590
REMARK  Name = min_compound969.pdb
REMARK  5 active torsions:
REMARK  status: ('A' for Active; 'I' for Inactive)
REMARK    1  A    between atoms: _2  and  _5
REMARK    2  A    between atoms: _10  and  _16
REMARK    3  A    between atoms: _12  and  _17
REMARK    4  A    between atoms: _14  and  _17
REMARK    5  A    between atoms: _15  and  _19
REMARK                            x       y       z     vdW  Elec       q    Type
REMARK                         _______ _______ _______ _____ _____    ______ ____
ROOT
ATOM      1  N   UNL     1     -12.969   3.702 -19.045  0.00  0.00    -0.284 N 
ATOM      2  H   UNL     1     -12.498   3.793 -19.939  0.00  0.00    +0.155 HD
ATOM      3  C   UNL     1     -14.330   3.493 -19.047  0.00  0.00    +0.229 C 
ATOM      4  O   UNL     1     -14.835   2.984 -18.028  0.00  0.00    -0.275 OA
ENDROOT
BRANCH   1   7
ATOM      5  C   UNL     1     -10.773   1.799 -16.448  0.00  0.00    +0.057 A 
ATOM      6  C   UNL     1     -11.657   2.089 -17.549  0.00  0.00    +0.037 A 
ATOM      7  C   UNL     1     -12.107   3.399 -17.902  0.00  0.00    +0.052 A 
ATOM      8  C   UNL     1     -11.670   4.444 -17.079  0.00  0.00    +0.062 A 
ATOM      9 CL   UNL     1     -12.145   6.079 -17.392  0.00  0.00    -0.082 Cl
ATOM     10  C   UNL     1     -10.808   4.199 -15.995  0.00  0.00    +0.022 A 
ATOM     11  C   UNL     1     -10.368   2.899 -15.683  0.00  0.00    +0.014 A 
BRANCH   5  13
ATOM     12  F   UNL     1      -9.291   0.358 -16.950  0.00  0.00    -0.166 F 
ATOM     13  C   UNL     1     -10.478   0.358 -16.152  0.00  0.00    +0.417 C 
ATOM     14  F   UNL     1     -10.005   0.666 -14.840  0.00  0.00    -0.166 F 
ATOM     15  F   UNL     1     -10.183  -1.082 -15.855  0.00  0.00    -0.166 F 
ENDBRANCH   5  13
ENDBRANCH   1   7
BRANCH   3  16
ATOM     16  C   UNL     1     -15.205   3.653 -20.254  0.00  0.00    +0.224 C 
BRANCH  16  17
ATOM     17  C   UNL     1     -14.399   2.761 -21.283  0.00  0.00    +0.282 C 
ATOM     18  N   UNL     1     -14.037   3.312 -22.496  0.00  0.00    -0.288 N 
ATOM     19  H   UNL     1     -13.576   4.214 -22.362  0.00  0.00    +0.301 HD
ATOM     20  H   UNL     1     -13.402   2.669 -22.964  0.00  0.00    +0.301 HD
ATOM     21  N   UNL     1     -14.159   1.525 -20.952  0.00  0.00    -0.136 N 
ATOM     22  H   UNL     1     -14.430   1.106 -20.104  0.00  0.00    +0.348 HD
BRANCH  21  23
ATOM     23  O   UNL     1     -13.456   0.874 -21.982  0.00  0.00    -0.210 OA
ATOM     24  H   UNL     1     -14.051   0.995 -22.746  0.00  0.00    +0.271 HD
ENDBRANCH  21  23
ENDBRANCH  16  17
ENDBRANCH   3  16
TORSDOF 5
ENDMDL
MODEL 4
REMARK VINA RESULT:      -6.5      3.299      4.096
REMARK  Name = min_compound969.pdb
REMARK  5 active torsions:
REMARK  status: ('A' for Active; 'I' for Inactive)
REMARK    1  A    between atoms: _2  and  _5
REMARK    2  A    between atoms: _10  and  _16
REMARK    3  A    between atoms: _12  and  _17
REMARK    4  A    between atoms: _14  and  _17
REMARK    5  A    between atoms: _15  and  _19
REMARK                            x       y       z     vdW  Elec       q    Type
REMARK                         _______ _______ _______ _____ _____    ______ ____
ROOT
ATOM      1  N   UNL     1     -15.265  -0.890  -2.833  0.00  0.00    -0.284 N 
ATOM      2  H   UNL     1     -15.914  -0.458  -2.183  0.00  0.00    +0.155 HD
ATOM      3  C   UNL     1     -14.829  -2.167  -2.562  0.00  0.00    +0.229 C 
ATOM      4  O   UNL     1     -14.386  -2.837  -3.514  0.00  0.00    -0.275 OA
ENDROOT
BRANCH   1   7
ATOM      5  C   UNL     1     -16.046   0.078  -6.526  0.00  0.00    +0.057 A 
ATOM      6  C   UNL     1     -16.092  -0.560  -5.234  0.00  0.00    +0.037 A 
ATOM      7  C   UNL     1     -15.194  -0.275  -4.160  0.00  0.00    +0.052 A 
ATOM      8  C   UNL     1     -14.189   0.663  -4.426  0.00  0.00    +0.062 A 
ATOM      9 CL   UNL     1     -13.033   1.095  -3.212  0.00  0.00    -0.082 Cl
ATOM     10  C   UNL     1     -14.112   1.305  -5.674  0.00  0.00    +0.022 A 
ATOM     11  C   UNL     1     -15.023   1.017  -6.709  0.00  0.00    +0.014 A 
BRANCH   5  13
ATOM     12  F   UNL     1     -16.414   0.412  -8.594  0.00  0.00    -0.166 F 
ATOM     13  C   UNL     1     -16.999  -0.407  -7.578  0.00  0.00    +0.417 C 
ATOM     14  F   UNL     1     -16.311  -1.652  -7.707  0.00  0.00    -0.166 F 
ATOM     15  F   UNL     1     -17.952  -0.892  -8.630  0.00  0.00    -0.166 F 
ENDBRANCH   5  13
ENDBRANCH   1   7
BRANCH   3  16
ATOM     16  C   UNL     1     -15.031  -2.865  -1.250  0.00  0.00    +0.224 C 
BRANCH  16  17
ATOM     17  C   UNL     1     -13.641  -3.611  -1.132  0.00  0.00    +0.282 C 
ATOM     18  N   UNL     1     -13.619  -4.989  -1.220  0.00  0.00    -0.288 N 
ATOM     19  H   UNL     1     -14.131  -5.309  -2.043  0.00  0.00    +0.301 HD
ATOM     20  H   UNL     1     -12.649  -5.291  -1.280  0.00  0.00    +0.301 HD
ATOM     21  N   UNL     1     -12.584  -2.886  -0.906  0.00  0.00    -0.136 N 
ATOM     22  H   UNL     1     -12.582  -1.906  -0.816  0.00  0.00    +0.348 HD
BRANCH  21  23
ATOM     23  O   UNL     1     -11.444  -3.704  -0.809  0.00  0.00    -0.210 OA
ATOM     24  H   UNL     1     -11.668  -4.441  -1.409  0.00  0.00    +0.271 HD
ENDBRANCH  21  23
ENDBRANCH  16  17
ENDBRANCH   3  16
TORSDOF 5
ENDMDL
MODEL 5
REMARK VINA RESULT:      -6.5     14.599     15.896
REMARK  Name = min_compound969.pdb
REMARK  5 active torsions:
REMARK  status: ('A' for Active; 'I' for Inactive)
REMARK    1  A    between atoms: _2  and  _5
REMARK    2  A    between atoms: _10  and  _16
REMARK    3  A    between atoms: _12  and  _17
REMARK    4  A    between atoms: _14  and  _17
REMARK    5  A    between atoms: _15  and  _19
REMARK                            x       y       z     vdW  Elec       q    Type
REMARK                         _______ _______ _______ _____ _____    ______ ____
ROOT
ATOM      1  N   UNL     1     -14.157   4.232 -16.582  0.00  0.00    -0.284 N 
ATOM      2  H   UNL     1     -14.738   4.240 -17.415  0.00  0.00    +0.155 HD
ATOM      3  C   UNL     1     -14.748   4.533 -15.376  0.00  0.00    +0.229 C 
ATOM      4  O   UNL     1     -14.176   4.138 -14.342  0.00  0.00    -0.275 OA
ENDROOT
BRANCH   1   7
ATOM      5  C   UNL     1     -11.478   1.404 -16.671  0.00  0.00    +0.057 A 
ATOM      6  C   UNL     1     -12.723   2.112 -16.508  0.00  0.00    +0.037 A 
ATOM      7  C   UNL     1     -12.885   3.518 -16.704  0.00  0.00    +0.052 A 
ATOM      8  C   UNL     1     -11.729   4.232 -17.039  0.00  0.00    +0.062 A 
ATOM      9 CL   UNL     1     -11.787   5.943 -17.300  0.00  0.00    -0.082 Cl
ATOM     10  C   UNL     1     -10.497   3.576 -17.205  0.00  0.00    +0.022 A 
ATOM     11  C   UNL     1     -10.371   2.186 -17.023  0.00  0.00    +0.014 A 
BRANCH   5  13
ATOM     12  F   UNL     1     -10.979  -0.430 -17.624  0.00  0.00    -0.166 F 
ATOM     13  C   UNL     1     -11.456  -0.057 -16.329  0.00  0.00    +0.417 C 
ATOM     14  F   UNL     1     -10.263   0.084 -15.555  0.00  0.00    -0.166 F 
ATOM     15  F   UNL     1     -11.433  -1.517 -15.987  0.00  0.00    -0.166 F 
ENDBRANCH   5  13
ENDBRANCH   1   7
BRANCH   3  16
ATOM     16  C   UNL     1     -16.118   5.126 -15.233  0.00  0.00    +0.224 C 
BRANCH  16  17
ATOM     17  C   UNL     1     -15.779   6.345 -14.283  0.00  0.00    +0.282 C 
ATOM     18  N   UNL     1     -15.848   6.159 -12.917  0.00  0.00    -0.288 N 
ATOM     19  H   UNL     1     -15.326   5.327 -12.636  0.00  0.00    +0.301 HD
ATOM     20  H   UNL     1     -15.456   6.980 -12.461  0.00  0.00    +0.301 HD
ATOM     21  N   UNL     1     -15.497   7.487 -14.842  0.00  0.00    -0.136 N 
ATOM     22  H   UNL     1     -15.466   7.646 -15.813  0.00  0.00    +0.348 HD
BRANCH  21  23
ATOM     23  O   UNL     1     -15.242   8.460 -13.859  0.00  0.00    -0.210 OA
ATOM     24  H   UNL     1     -15.139   7.918 -13.054  0.00  0.00    +0.271 HD
ENDBRANCH  21  23
ENDBRANCH  16  17
ENDBRANCH   3  16
TORSDOF 5
ENDMDL
MODEL 6
REMARK VINA RESULT:      -6.4      1.993      2.459
REMARK  Name = min_compound969.pdb
REMARK  5 active torsions:
REMARK  status: ('A' for Active; 'I' for Inactive)
REMARK    1  A    between atoms: _2  and  _5
REMARK    2  A    between atoms: _10  and  _16
REMARK    3  A    between atoms: _12  and  _17
REMARK    4  A    between atoms: _14  and  _17
REMARK    5  A    between atoms: _15  and  _19
REMARK                            x       y       z     vdW  Elec       q    Type
REMARK                         _______ _______ _______ _____ _____    ______ ____
ROOT
ATOM      1  N   UNL     1     -14.274  -2.801  -1.201  0.00  0.00    -0.284 N 
ATOM      2  H   UNL     1     -14.423  -2.820  -0.197  0.00  0.00    +0.155 HD
ATOM      3  C   UNL     1     -13.859  -3.960  -1.818  0.00  0.00    +0.229 C 
ATOM      4  O   UNL     1     -14.065  -4.066  -3.042  0.00  0.00    -0.275 OA
ENDROOT
BRANCH   1   7
ATOM      5  C   UNL     1     -14.798   0.431  -3.314  0.00  0.00    +0.057 A 
ATOM      6  C   UNL     1     -14.181  -0.643  -2.577  0.00  0.00    +0.037 A 
ATOM      7  C   UNL     1     -14.899  -1.686  -1.914  0.00  0.00    +0.052 A 
ATOM      8  C   UNL     1     -16.295  -1.608  -1.972  0.00  0.00    +0.062 A 
ATOM      9 CL   UNL     1     -17.284  -2.805  -1.207  0.00  0.00    -0.082 Cl
ATOM     10  C   UNL     1     -16.933  -0.575  -2.681  0.00  0.00    +0.022 A 
ATOM     11  C   UNL     1     -16.198   0.430  -3.339  0.00  0.00    +0.014 A 
BRANCH   5  13
ATOM     12  F   UNL     1     -14.721   2.556  -3.348  0.00  0.00    -0.166 F 
ATOM     13  C   UNL     1     -13.905   1.502  -3.866  0.00  0.00    +0.417 C 
ATOM     14  F   UNL     1     -12.928   1.293  -2.845  0.00  0.00    -0.166 F 
ATOM     15  F   UNL     1     -13.011   2.573  -4.418  0.00  0.00    -0.166 F 
ENDBRANCH   5  13
ENDBRANCH   1   7
BRANCH   3  16
ATOM     16  C   UNL     1     -13.358  -5.170  -1.086  0.00  0.00    +0.224 C 
BRANCH  16  17
ATOM     17  C   UNL     1     -14.031  -6.303  -1.961  0.00  0.00    +0.282 C 
ATOM     18  N   UNL     1     -13.218  -7.153  -2.684  0.00  0.00    -0.288 N 
ATOM     19  H   UNL     1     -12.482  -7.543  -2.093  0.00  0.00    +0.301 HD
ATOM     20  H   UNL     1     -13.792  -7.905  -3.059  0.00  0.00    +0.301 HD
ATOM     21  N   UNL     1     -15.332  -6.348  -1.995  0.00  0.00    -0.136 N 
ATOM     22  H   UNL     1     -15.929  -5.737  -1.506  0.00  0.00    +0.348 HD
BRANCH  21  23
ATOM     23  O   UNL     1     -15.761  -7.395  -2.829  0.00  0.00    -0.210 OA
ATOM     24  H   UNL     1     -16.624  -7.630  -2.439  0.00  0.00    +0.271 HD
ENDBRANCH  21  23
ENDBRANCH  16  17
ENDBRANCH   3  16
TORSDOF 5
ENDMDL
MODEL 7
REMARK VINA RESULT:      -6.3     14.461     15.820
REMARK  Name = min_compound969.pdb
REMARK  5 active torsions:
REMARK  status: ('A' for Active; 'I' for Inactive)
REMARK    1  A    between atoms: _2  and  _5
REMARK    2  A    between atoms: _10  and  _16
REMARK    3  A    between atoms: _12  and  _17
REMARK    4  A    between atoms: _14  and  _17
REMARK    5  A    between atoms: _15  and  _19
REMARK                            x       y       z     vdW  Elec       q    Type
REMARK                         _______ _______ _______ _____ _____    ______ ____
ROOT
ATOM      1  N   UNL     1     -13.461   3.775 -15.260  0.00  0.00    -0.284 N 
ATOM      2  H   UNL     1     -13.396   4.723 -14.903  0.00  0.00    +0.155 HD
ATOM      3  C   UNL     1     -14.713   3.229 -15.425  0.00  0.00    +0.229 C 
ATOM      4  O   UNL     1     -14.824   2.273 -16.216  0.00  0.00    -0.275 OA
ENDROOT
BRANCH   1   7
ATOM      5  C   UNL     1     -10.540   1.458 -16.395  0.00  0.00    +0.057 A 
ATOM      6  C   UNL     1     -11.695   1.974 -15.704  0.00  0.00    +0.037 A 
ATOM      7  C   UNL     1     -12.262   3.266 -15.929  0.00  0.00    +0.052 A 
ATOM      8  C   UNL     1     -11.603   4.076 -16.862  0.00  0.00    +0.062 A 
ATOM      9 CL   UNL     1     -12.184   5.666 -17.224  0.00  0.00    -0.082 Cl
ATOM     10  C   UNL     1     -10.473   3.607 -17.555  0.00  0.00    +0.022 A 
ATOM     11  C   UNL     1      -9.948   2.322 -17.324  0.00  0.00    +0.014 A 
BRANCH   5  13
ATOM     12  F   UNL     1     -10.011   0.477 -14.584  0.00  0.00    -0.166 F 
ATOM     13  C   UNL     1     -10.012   0.120 -15.969  0.00  0.00    +0.417 C 
ATOM     14  F   UNL     1     -11.282  -0.505 -16.158  0.00  0.00    -0.166 F 
ATOM     15  F   UNL     1      -9.484  -1.217 -15.543  0.00  0.00    -0.166 F 
ENDBRANCH   5  13
ENDBRANCH   1   7
BRANCH   3  16
ATOM     16  C   UNL     1     -15.973   3.826 -14.871  0.00  0.00    +0.224 C 
BRANCH  16  17
ATOM     17  C   UNL     1     -16.987   3.402 -16.009  0.00  0.00    +0.282 C 
ATOM     18  N   UNL     1     -17.937   2.441 -15.723  0.00  0.00    -0.288 N 
ATOM     19  H   UNL     1     -18.436   2.667 -14.861  0.00  0.00    +0.301 HD
ATOM     20  H   UNL     1     -18.595   2.400 -16.499  0.00  0.00    +0.301 HD
ATOM     21  N   UNL     1     -16.844   3.948 -17.181  0.00  0.00    -0.136 N 
ATOM     22  H   UNL     1     -16.158   4.616 -17.411  0.00  0.00    +0.348 HD
BRANCH  21  23
ATOM     23  O   UNL     1     -17.809   3.447 -18.073  0.00  0.00    -0.210 OA
ATOM     24  H   UNL     1     -18.503   4.131 -18.031  0.00  0.00    +0.271 HD
ENDBRANCH  21  23
ENDBRANCH  16  17
ENDBRANCH   3  16
TORSDOF 5
ENDMDL
MODEL 8
REMARK VINA RESULT:      -6.2     15.966     17.740
REMARK  Name = min_compound969.pdb
REMARK  5 active torsions:
REMARK  status: ('A' for Active; 'I' for Inactive)
REMARK    1  A    between atoms: _2  and  _5
REMARK    2  A    between atoms: _10  and  _16
REMARK    3  A    between atoms: _12  and  _17
REMARK    4  A    between atoms: _14  and  _17
REMARK    5  A    between atoms: _15  and  _19
REMARK                            x       y       z     vdW  Elec       q    Type
REMARK                         _______ _______ _______ _____ _____    ______ ____
ROOT
ATOM      1  N   UNL     1     -14.060   2.518 -17.940  0.00  0.00    -0.284 N 
ATOM      2  H   UNL     1     -14.928   2.353 -17.441  0.00  0.00    +0.155 HD
ATOM      3  C   UNL     1     -14.061   3.449 -18.953  0.00  0.00    +0.229 C 
ATOM      4  O   UNL     1     -12.965   3.945 -19.280  0.00  0.00    -0.275 OA
ENDROOT
BRANCH   1   7
ATOM      5  C   UNL     1     -10.785   0.580 -17.098  0.00  0.00    +0.057 A 
ATOM      6  C   UNL     1     -12.004   1.002 -17.740  0.00  0.00    +0.037 A 
ATOM      7  C   UNL     1     -12.844   2.057 -17.266  0.00  0.00    +0.052 A 
ATOM      8  C   UNL     1     -12.447   2.675 -16.075  0.00  0.00    +0.062 A 
ATOM      9 CL   UNL     1     -13.377   3.963 -15.389  0.00  0.00    -0.082 Cl
ATOM     10  C   UNL     1     -11.264   2.288 -15.420  0.00  0.00    +0.022 A 
ATOM     11  C   UNL     1     -10.447   1.257 -15.920  0.00  0.00    +0.014 A 
BRANCH   5  13
ATOM     12  F   UNL     1      -8.813   0.067 -17.708  0.00  0.00    -0.166 F 
ATOM     13  C   UNL     1     -10.072  -0.611 -17.669  0.00  0.00    +0.417 C 
ATOM     14  F   UNL     1     -10.060  -1.280 -16.408  0.00  0.00    -0.166 F 
ATOM     15  F   UNL     1      -9.360  -1.801 -18.240  0.00  0.00    -0.166 F 
ENDBRANCH   5  13
ENDBRANCH   1   7
BRANCH   3  16
ATOM     16  C   UNL     1     -15.302   4.044 -19.549  0.00  0.00    +0.224 C 
BRANCH  16  17
ATOM     17  C   UNL     1     -14.644   5.058 -20.570  0.00  0.00    +0.282 C 
ATOM     18  N   UNL     1     -14.362   4.621 -21.849  0.00  0.00    -0.288 N 
ATOM     19  H   UNL     1     -15.176   4.167 -22.266  0.00  0.00    +0.301 HD
ATOM     20  H   UNL     1     -14.092   5.425 -22.411  0.00  0.00    +0.301 HD
ATOM     21  N   UNL     1     -14.353   6.250 -20.135  0.00  0.00    -0.136 N 
ATOM     22  H   UNL     1     -14.523   6.573 -19.221  0.00  0.00    +0.348 HD
BRANCH  21  23
ATOM     23  O   UNL     1     -13.760   7.010 -21.159  0.00  0.00    -0.210 OA
ATOM     24  H   UNL     1     -14.451   7.002 -21.847  0.00  0.00    +0.271 HD
ENDBRANCH  21  23
ENDBRANCH  16  17
ENDBRANCH   3  16
TORSDOF 5
ENDMDL
MODEL 9
REMARK VINA RESULT:      -6.2     15.239     16.455
REMARK  Name = min_compound969.pdb
REMARK  5 active torsions:
REMARK  status: ('A' for Active; 'I' for Inactive)
REMARK    1  A    between atoms: _2  and  _5
REMARK    2  A    between atoms: _10  and  _16
REMARK    3  A    between atoms: _12  and  _17
REMARK    4  A    between atoms: _14  and  _17
REMARK    5  A    between atoms: _15  and  _19
REMARK                            x       y       z     vdW  Elec       q    Type
REMARK                         _______ _______ _______ _____ _____    ______ ____
ROOT
ATOM      1  N   UNL     1     -11.311   3.421 -15.903  0.00  0.00    -0.284 N 
ATOM      2  H   UNL     1     -11.207   3.666 -14.923  0.00  0.00    +0.155 HD
ATOM      3  C   UNL     1     -11.005   2.135 -16.286  0.00  0.00    +0.229 C 
ATOM      4  O   UNL     1     -11.501   1.718 -17.350  0.00  0.00    -0.275 OA
ENDROOT
BRANCH   1   7
ATOM      5  C   UNL     1     -12.511   5.955 -18.610  0.00  0.00    +0.057 A 
ATOM      6  C   UNL     1     -11.677   5.099 -17.803  0.00  0.00    +0.037 A 
ATOM      7  C   UNL     1     -12.146   4.324 -16.697  0.00  0.00    +0.052 A 
ATOM      8  C   UNL     1     -13.502   4.458 -16.380  0.00  0.00    +0.062 A 
ATOM      9 CL   UNL     1     -14.197   3.578 -15.060  0.00  0.00    -0.082 Cl
ATOM     10  C   UNL     1     -14.346   5.284 -17.144  0.00  0.00    +0.022 A 
ATOM     11  C   UNL     1     -13.859   6.022 -18.239  0.00  0.00    +0.014 A 
BRANCH   5  13
ATOM     12  F   UNL     1     -13.087   7.149 -20.273  0.00  0.00    -0.166 F 
ATOM     13  C   UNL     1     -11.843   6.778 -19.672  0.00  0.00    +0.417 C 
ATOM     14  F   UNL     1     -11.575   7.843 -18.758  0.00  0.00    -0.166 F 
ATOM     15  F   UNL     1     -11.176   7.601 -20.734  0.00  0.00    -0.166 F 
ENDBRANCH   5  13
ENDBRANCH   1   7
BRANCH   3  16
ATOM     16  C   UNL     1     -10.281   1.148 -15.419  0.00  0.00    +0.224 C 
BRANCH  16  17
ATOM     17  C   UNL     1     -10.308  -0.112 -16.377  0.00  0.00    +0.282 C 
ATOM     18  N   UNL     1     -11.292  -1.063 -16.191  0.00  0.00    -0.288 N 
ATOM     19  H   UNL     1     -12.214  -0.628 -16.142  0.00  0.00    +0.301 HD
ATOM     20  H   UNL     1     -11.260  -1.713 -16.974  0.00  0.00    +0.301 HD
ATOM     21  N   UNL     1      -9.365  -0.214 -17.268  0.00  0.00    -0.136 N 
ATOM     22  H   UNL     1      -8.641   0.440 -17.399  0.00  0.00    +0.348 HD
BRANCH  21  23
ATOM     23  O   UNL     1      -9.527  -1.394 -18.015  0.00  0.00    -0.210 OA
ATOM     24  H   UNL     1      -8.744  -1.380 -18.596  0.00  0.00    +0.271 HD
ENDBRANCH  21  23
ENDBRANCH  16  17
ENDBRANCH   3  16
TORSDOF 5
ENDMDL
