MODEL 1
REMARK VINA RESULT:      -7.9      0.000      0.000
REMARK  Name = min_compound964.pdb
REMARK  4 active torsions:
REMARK  status: ('A' for Active; 'I' for Inactive)
REMARK    1  A    between atoms: _5  and  _7
REMARK    2  A    between atoms: _7  and  _9
REMARK    3  A    between atoms: _9  and  _10
REMARK    4  A    between atoms: _9  and  _16
REMARK                            x       y       z     vdW  Elec       q    Type
REMARK                         _______ _______ _______ _____ _____    ______ ____
ROOT
ATOM      1  P   UNL     1     -13.501   3.140 -17.235  0.00  0.00    +0.263 P 
ATOM      2  O   UNL     1     -12.626   3.018 -18.447  0.00  0.00    -0.281 OA
ENDROOT
BRANCH   1   3
ATOM      3  C   UNL     1     -13.599   4.620 -17.454  0.00  0.00    +0.041 A 
ATOM      4  C   UNL     1     -14.817   5.287 -17.749  0.00  0.00    +0.014 A 
ATOM      5  C   UNL     1     -14.911   6.667 -17.973  0.00  0.00    +0.001 A 
ATOM      6  C   UNL     1     -13.770   7.454 -17.939  0.00  0.00    +0.000 A 
ATOM      7  C   UNL     1     -12.541   6.857 -17.700  0.00  0.00    +0.001 A 
ATOM      8  C   UNL     1     -12.466   5.477 -17.476  0.00  0.00    +0.014 A 
ENDBRANCH   1   3
BRANCH   1   9
ATOM      9  C   UNL     1     -14.376   3.261 -16.022  0.00  0.00    +0.041 A 
ATOM     10  C   UNL     1     -15.584   2.532 -15.866  0.00  0.00    +0.014 A 
ATOM     11  C   UNL     1     -16.392   2.607 -14.724  0.00  0.00    +0.001 A 
ATOM     12  C   UNL     1     -16.012   3.411 -13.659  0.00  0.00    +0.000 A 
ATOM     13  C   UNL     1     -14.823   4.122 -13.735  0.00  0.00    +0.001 A 
ATOM     14  C   UNL     1     -14.026   4.033 -14.883  0.00  0.00    +0.014 A 
ENDBRANCH   1   9
BRANCH   1  15
ATOM     15  O   UNL     1     -13.404   1.659 -17.016  0.00  0.00    -0.318 OA
BRANCH  15  20
ATOM     16  C   UNL     1      -9.980   0.689 -15.228  0.00  0.00    +0.003 C 
ATOM     17  C   UNL     1      -9.663  -0.640 -16.028  0.00  0.00    +0.000 C 
ATOM     18  C   UNL     1     -10.161  -0.589 -17.442  0.00  0.00    +0.003 C 
ATOM     19  C   UNL     1     -11.752  -0.300 -17.023  0.00  0.00    +0.032 C 
ATOM     20  C   UNL     1     -12.166   0.913 -16.537  0.00  0.00    +0.127 C 
ATOM     21  C   UNL     1     -11.102   1.651 -15.782  0.00  0.00    +0.032 C 
ENDBRANCH  15  20
ENDBRANCH   1  15
TORSDOF 4
ENDMDL
MODEL 2
REMARK VINA RESULT:      -7.7      1.765      6.019
REMARK  Name = min_compound964.pdb
REMARK  4 active torsions:
REMARK  status: ('A' for Active; 'I' for Inactive)
REMARK    1  A    between atoms: _5  and  _7
REMARK    2  A    between atoms: _7  and  _9
REMARK    3  A    between atoms: _9  and  _10
REMARK    4  A    between atoms: _9  and  _16
REMARK                            x       y       z     vdW  Elec       q    Type
REMARK                         _______ _______ _______ _____ _____    ______ ____
ROOT
ATOM      1  P   UNL     1     -12.742   1.591 -16.558  0.00  0.00    +0.263 P 
ATOM      2  O   UNL     1     -13.541   0.325 -16.463  0.00  0.00    -0.281 OA
ENDROOT
BRANCH   1   3
ATOM      3  C   UNL     1     -11.475   0.789 -16.592  0.00  0.00    +0.041 A 
ATOM      4  C   UNL     1     -10.450   0.989 -17.554  0.00  0.00    +0.014 A 
ATOM      5  C   UNL     1      -9.272   0.231 -17.602  0.00  0.00    +0.001 A 
ATOM      6  C   UNL     1      -9.073  -0.797 -16.694  0.00  0.00    +0.000 A 
ATOM      7  C   UNL     1     -10.057  -1.074 -15.755  0.00  0.00    +0.001 A 
ATOM      8  C   UNL     1     -11.226  -0.305 -15.720  0.00  0.00    +0.014 A 
ENDBRANCH   1   3
BRANCH   1   9
ATOM      9  C   UNL     1     -11.943   2.857 -16.653  0.00  0.00    +0.041 A 
ATOM     10  C   UNL     1     -12.200   3.861 -17.623  0.00  0.00    +0.014 A 
ATOM     11  C   UNL     1     -11.487   5.064 -17.700  0.00  0.00    +0.001 A 
ATOM     12  C   UNL     1     -10.483   5.334 -16.782  0.00  0.00    +0.000 A 
ATOM     13  C   UNL     1     -10.208   4.409 -15.784  0.00  0.00    +0.001 A 
ATOM     14  C   UNL     1     -10.933   3.213 -15.721  0.00  0.00    +0.014 A 
ENDBRANCH   1   9
BRANCH   1  15
ATOM     15  O   UNL     1     -14.009   2.393 -16.523  0.00  0.00    -0.318 OA
BRANCH  15  20
ATOM     16  C   UNL     1     -16.761   2.611 -13.654  0.00  0.00    +0.003 C 
ATOM     17  C   UNL     1     -16.263   3.937 -12.948  0.00  0.00    +0.000 C 
ATOM     18  C   UNL     1     -15.638   4.900 -13.914  0.00  0.00    +0.003 C 
ATOM     19  C   UNL     1     -14.476   3.828 -14.453  0.00  0.00    +0.032 C 
ATOM     20  C   UNL     1     -14.785   2.772 -15.270  0.00  0.00    +0.127 C 
ATOM     21  C   UNL     1     -16.177   2.250 -15.074  0.00  0.00    +0.032 C 
ENDBRANCH  15  20
ENDBRANCH   1  15
TORSDOF 4
ENDMDL
MODEL 3
REMARK VINA RESULT:      -7.4      1.763      5.637
REMARK  Name = min_compound964.pdb
REMARK  4 active torsions:
REMARK  status: ('A' for Active; 'I' for Inactive)
REMARK    1  A    between atoms: _5  and  _7
REMARK    2  A    between atoms: _7  and  _9
REMARK    3  A    between atoms: _9  and  _10
REMARK    4  A    between atoms: _9  and  _16
REMARK                            x       y       z     vdW  Elec       q    Type
REMARK                         _______ _______ _______ _____ _____    ______ ____
ROOT
ATOM      1  P   UNL     1     -11.479   3.521 -16.846  0.00  0.00    +0.263 P 
ATOM      2  O   UNL     1     -10.161   3.785 -17.511  0.00  0.00    -0.281 OA
ENDROOT
BRANCH   1   3
ATOM      3  C   UNL     1     -11.100   2.080 -16.667  0.00  0.00    +0.041 A 
ATOM      4  C   UNL     1     -10.552   1.561 -15.464  0.00  0.00    +0.014 A 
ATOM      5  C   UNL     1     -10.179   0.220 -15.297  0.00  0.00    +0.001 A 
ATOM      6  C   UNL     1     -10.312  -0.671 -16.351  0.00  0.00    +0.000 A 
ATOM      7  C   UNL     1     -10.798  -0.217 -17.568  0.00  0.00    +0.001 A 
ATOM      8  C   UNL     1     -11.169   1.125 -17.716  0.00  0.00    +0.014 A 
ENDBRANCH   1   3
BRANCH   1   9
ATOM      9  C   UNL     1     -12.798   3.256 -16.180  0.00  0.00    +0.041 A 
ATOM     10  C   UNL     1     -13.274   4.017 -15.081  0.00  0.00    +0.014 A 
ATOM     11  C   UNL     1     -14.518   3.806 -14.474  0.00  0.00    +0.001 A 
ATOM     12  C   UNL     1     -15.367   2.822 -14.960  0.00  0.00    +0.000 A 
ATOM     13  C   UNL     1     -14.976   2.068 -16.057  0.00  0.00    +0.001 A 
ATOM     14  C   UNL     1     -13.730   2.295 -16.653  0.00  0.00    +0.014 A 
ENDBRANCH   1   9
BRANCH   1  15
ATOM     15  O   UNL     1     -11.859   4.961 -17.025  0.00  0.00    -0.318 OA
BRANCH  15  20
ATOM     16  C   UNL     1     -13.464   5.591 -20.614  0.00  0.00    +0.003 C 
ATOM     17  C   UNL     1     -12.804   6.996 -20.925  0.00  0.00    +0.000 C 
ATOM     18  C   UNL     1     -11.440   7.134 -20.318  0.00  0.00    +0.003 C 
ATOM     19  C   UNL     1     -11.949   6.849 -18.753  0.00  0.00    +0.032 C 
ATOM     20  C   UNL     1     -12.320   5.601 -18.326  0.00  0.00    +0.127 C 
ATOM     21  C   UNL     1     -12.893   4.742 -19.412  0.00  0.00    +0.032 C 
ENDBRANCH  15  20
ENDBRANCH   1  15
TORSDOF 4
ENDMDL
MODEL 4
REMARK VINA RESULT:      -7.3      1.598      4.904
REMARK  Name = min_compound964.pdb
REMARK  4 active torsions:
REMARK  status: ('A' for Active; 'I' for Inactive)
REMARK    1  A    between atoms: _5  and  _7
REMARK    2  A    between atoms: _7  and  _9
REMARK    3  A    between atoms: _9  and  _10
REMARK    4  A    between atoms: _9  and  _16
REMARK                            x       y       z     vdW  Elec       q    Type
REMARK                         _______ _______ _______ _____ _____    ______ ____
ROOT
ATOM      1  P   UNL     1     -13.911   3.852 -17.291  0.00  0.00    +0.263 P 
ATOM      2  O   UNL     1     -15.171   4.650 -17.448  0.00  0.00    -0.281 OA
ENDROOT
BRANCH   1   3
ATOM      3  C   UNL     1     -13.160   4.883 -18.080  0.00  0.00    +0.041 A 
ATOM      4  C   UNL     1     -12.582   6.043 -17.499  0.00  0.00    +0.014 A 
ATOM      5  C   UNL     1     -11.896   7.019 -18.234  0.00  0.00    +0.001 A 
ATOM      6  C   UNL     1     -11.777   6.893 -19.610  0.00  0.00    +0.000 A 
ATOM      7  C   UNL     1     -12.359   5.806 -20.246  0.00  0.00    +0.001 A 
ATOM      8  C   UNL     1     -13.039   4.839 -19.495  0.00  0.00    +0.014 A 
ENDBRANCH   1   3
BRANCH   1   9
ATOM      9  C   UNL     1     -12.650   3.054 -17.134  0.00  0.00    +0.041 A 
ATOM     10  C   UNL     1     -11.728   3.269 -16.076  0.00  0.00    +0.014 A 
ATOM     11  C   UNL     1     -10.566   2.507 -15.895  0.00  0.00    +0.001 A 
ATOM     12  C   UNL     1     -10.280   1.465 -16.765  0.00  0.00    +0.000 A 
ATOM     13  C   UNL     1     -11.160   1.180 -17.799  0.00  0.00    +0.001 A 
ATOM     14  C   UNL     1     -12.319   1.950 -17.962  0.00  0.00    +0.014 A 
ENDBRANCH   1   9
BRANCH   1  15
ATOM     15  O   UNL     1     -14.662   2.821 -16.501  0.00  0.00    -0.318 OA
BRANCH  15  20
ATOM     16  C   UNL     1     -17.069   2.716 -13.331  0.00  0.00    +0.003 C 
ATOM     17  C   UNL     1     -16.397   3.873 -12.485  0.00  0.00    +0.000 C 
ATOM     18  C   UNL     1     -15.806   4.946 -13.351  0.00  0.00    +0.003 C 
ATOM     19  C   UNL     1     -14.794   3.913 -14.187  0.00  0.00    +0.032 C 
ATOM     20  C   UNL     1     -15.269   3.029 -15.121  0.00  0.00    +0.127 C 
ATOM     21  C   UNL     1     -16.668   2.566 -14.850  0.00  0.00    +0.032 C 
ENDBRANCH  15  20
ENDBRANCH   1  15
TORSDOF 4
ENDMDL
MODEL 5
REMARK VINA RESULT:      -7.3      1.551      5.745
REMARK  Name = min_compound964.pdb
REMARK  4 active torsions:
REMARK  status: ('A' for Active; 'I' for Inactive)
REMARK    1  A    between atoms: _5  and  _7
REMARK    2  A    between atoms: _7  and  _9
REMARK    3  A    between atoms: _9  and  _10
REMARK    4  A    between atoms: _9  and  _16
REMARK                            x       y       z     vdW  Elec       q    Type
REMARK                         _______ _______ _______ _____ _____    ______ ____
ROOT
ATOM      1  P   UNL     1     -13.598   2.340 -16.567  0.00  0.00    +0.263 P 
ATOM      2  O   UNL     1     -14.177   1.180 -15.812  0.00  0.00    -0.281 OA
ENDROOT
BRANCH   1   3
ATOM      3  C   UNL     1     -12.288   1.618 -16.673  0.00  0.00    +0.041 A 
ATOM      4  C   UNL     1     -11.975   0.718 -17.725  0.00  0.00    +0.014 A 
ATOM      5  C   UNL     1     -10.760   0.026 -17.819  0.00  0.00    +0.001 A 
ATOM      6  C   UNL     1      -9.796   0.184 -16.835  0.00  0.00    +0.000 A 
ATOM      7  C   UNL     1     -10.057   1.014 -15.755  0.00  0.00    +0.001 A 
ATOM      8  C   UNL     1     -11.276   1.700 -15.679  0.00  0.00    +0.014 A 
ENDBRANCH   1   3
BRANCH   1   9
ATOM      9  C   UNL     1     -13.020   3.500 -17.322  0.00  0.00    +0.041 A 
ATOM     10  C   UNL     1     -13.368   3.798 -18.665  0.00  0.00    +0.014 A 
ATOM     11  C   UNL     1     -12.865   4.899 -19.370  0.00  0.00    +0.001 A 
ATOM     12  C   UNL     1     -11.993   5.780 -18.747  0.00  0.00    +0.000 A 
ATOM     13  C   UNL     1     -11.642   5.566 -17.422  0.00  0.00    +0.001 A 
ATOM     14  C   UNL     1     -12.157   4.461 -16.732  0.00  0.00    +0.014 A 
ENDBRANCH   1   9
BRANCH   1  15
ATOM     15  O   UNL     1     -14.909   3.062 -16.461  0.00  0.00    -0.318 OA
BRANCH  15  20
ATOM     16  C   UNL     1     -15.544   4.712 -12.893  0.00  0.00    +0.003 C 
ATOM     17  C   UNL     1     -16.962   4.077 -12.588  0.00  0.00    +0.000 C 
ATOM     18  C   UNL     1     -17.116   2.709 -13.182  0.00  0.00    +0.003 C 
ATOM     19  C   UNL     1     -16.810   3.198 -14.749  0.00  0.00    +0.032 C 
ATOM     20  C   UNL     1     -15.553   3.546 -15.170  0.00  0.00    +0.127 C 
ATOM     21  C   UNL     1     -14.694   4.117 -14.082  0.00  0.00    +0.032 C 
ENDBRANCH  15  20
ENDBRANCH   1  15
TORSDOF 4
ENDMDL
MODEL 6
REMARK VINA RESULT:      -7.2      1.252      3.657
REMARK  Name = min_compound964.pdb
REMARK  4 active torsions:
REMARK  status: ('A' for Active; 'I' for Inactive)
REMARK    1  A    between atoms: _5  and  _7
REMARK    2  A    between atoms: _7  and  _9
REMARK    3  A    between atoms: _9  and  _10
REMARK    4  A    between atoms: _9  and  _16
REMARK                            x       y       z     vdW  Elec       q    Type
REMARK                         _______ _______ _______ _____ _____    ______ ____
ROOT
ATOM      1  P   UNL     1     -13.678   3.103 -16.933  0.00  0.00    +0.263 P 
ATOM      2  O   UNL     1     -14.228   1.934 -16.171  0.00  0.00    -0.281 OA
ENDROOT
BRANCH   1   3
ATOM      3  C   UNL     1     -14.632   4.016 -16.222  0.00  0.00    +0.041 A 
ATOM      4  C   UNL     1     -14.625   4.210 -14.815  0.00  0.00    +0.014 A 
ATOM      5  C   UNL     1     -15.526   5.047 -14.143  0.00  0.00    +0.001 A 
ATOM      6  C   UNL     1     -16.509   5.719 -14.854  0.00  0.00    +0.000 A 
ATOM      7  C   UNL     1     -16.599   5.537 -16.227  0.00  0.00    +0.001 A 
ATOM      8  C   UNL     1     -15.689   4.699 -16.882  0.00  0.00    +0.014 A 
ENDBRANCH   1   3
BRANCH   1   9
ATOM      9  C   UNL     1     -13.127   4.272 -17.695  0.00  0.00    +0.041 A 
ATOM     10  C   UNL     1     -12.375   5.308 -17.083  0.00  0.00    +0.014 A 
ATOM     11  C   UNL     1     -11.823   6.385 -17.787  0.00  0.00    +0.001 A 
ATOM     12  C   UNL     1     -11.982   6.466 -19.163  0.00  0.00    +0.000 A 
ATOM     13  C   UNL     1     -12.677   5.465 -19.828  0.00  0.00    +0.001 A 
ATOM     14  C   UNL     1     -13.219   4.394 -19.107  0.00  0.00    +0.014 A 
ENDBRANCH   1   9
BRANCH   1  15
ATOM     15  O   UNL     1     -12.724   2.190 -17.644  0.00  0.00    -0.318 OA
BRANCH  15  20
ATOM     16  C   UNL     1      -9.999   0.548 -15.249  0.00  0.00    +0.003 C 
ATOM     17  C   UNL     1      -9.724  -0.775 -16.075  0.00  0.00    +0.000 C 
ATOM     18  C   UNL     1      -9.871  -0.567 -17.554  0.00  0.00    +0.003 C 
ATOM     19  C   UNL     1     -11.448  -0.025 -17.466  0.00  0.00    +0.032 C 
ATOM     20  C   UNL     1     -11.764   1.215 -16.976  0.00  0.00    +0.127 C 
ATOM     21  C   UNL     1     -10.797   1.717 -15.947  0.00  0.00    +0.032 C 
ENDBRANCH  15  20
ENDBRANCH   1  15
TORSDOF 4
ENDMDL
MODEL 7
REMARK VINA RESULT:      -7.1      1.972      5.540
REMARK  Name = min_compound964.pdb
REMARK  4 active torsions:
REMARK  status: ('A' for Active; 'I' for Inactive)
REMARK    1  A    between atoms: _5  and  _7
REMARK    2  A    between atoms: _7  and  _9
REMARK    3  A    between atoms: _9  and  _10
REMARK    4  A    between atoms: _9  and  _16
REMARK                            x       y       z     vdW  Elec       q    Type
REMARK                         _______ _______ _______ _____ _____    ______ ____
ROOT
ATOM      1  P   UNL     1     -13.267   4.312 -16.645  0.00  0.00    +0.263 P 
ATOM      2  O   UNL     1     -14.043   5.593 -16.726  0.00  0.00    -0.281 OA
ENDROOT
BRANCH   1   3
ATOM      3  C   UNL     1     -14.306   3.741 -15.725  0.00  0.00    +0.041 A 
ATOM      4  C   UNL     1     -15.144   2.650 -16.075  0.00  0.00    +0.014 A 
ATOM      5  C   UNL     1     -16.128   2.125 -15.228  0.00  0.00    +0.001 A 
ATOM      6  C   UNL     1     -16.343   2.692 -13.981  0.00  0.00    +0.000 A 
ATOM      7  C   UNL     1     -15.588   3.791 -13.596  0.00  0.00    +0.001 A 
ATOM      8  C   UNL     1     -14.607   4.301 -14.455  0.00  0.00    +0.014 A 
ENDBRANCH   1   3
BRANCH   1   9
ATOM      9  C   UNL     1     -12.492   3.030 -16.564  0.00  0.00    +0.041 A 
ATOM     10  C   UNL     1     -12.591   2.005 -17.541  0.00  0.00    +0.014 A 
ATOM     11  C   UNL     1     -11.845   0.820 -17.499  0.00  0.00    +0.001 A 
ATOM     12  C   UNL     1     -10.935   0.612 -16.473  0.00  0.00    +0.000 A 
ATOM     13  C   UNL     1     -10.764   1.592 -15.505  0.00  0.00    +0.001 A 
ATOM     14  C   UNL     1     -11.516   2.772 -15.566  0.00  0.00    +0.014 A 
ENDBRANCH   1   9
BRANCH   1  15
ATOM     15  O   UNL     1     -12.229   4.882 -17.565  0.00  0.00    -0.318 OA
BRANCH  15  20
ATOM     16  C   UNL     1     -13.463   5.734 -21.254  0.00  0.00    +0.003 C 
ATOM     17  C   UNL     1     -12.608   7.046 -21.492  0.00  0.00    +0.000 C 
ATOM     18  C   UNL     1     -11.287   7.005 -20.783  0.00  0.00    +0.003 C 
ATOM     19  C   UNL     1     -11.947   6.778 -19.265  0.00  0.00    +0.032 C 
ATOM     20  C   UNL     1     -12.505   5.585 -18.887  0.00  0.00    +0.127 C 
ATOM     21  C   UNL     1     -13.098   4.812 -20.027  0.00  0.00    +0.032 C 
ENDBRANCH  15  20
ENDBRANCH   1  15
TORSDOF 4
ENDMDL
MODEL 8
REMARK VINA RESULT:      -7.1     11.940     14.161
REMARK  Name = min_compound964.pdb
REMARK  4 active torsions:
REMARK  status: ('A' for Active; 'I' for Inactive)
REMARK    1  A    between atoms: _5  and  _7
REMARK    2  A    between atoms: _7  and  _9
REMARK    3  A    between atoms: _9  and  _10
REMARK    4  A    between atoms: _9  and  _16
REMARK                            x       y       z     vdW  Elec       q    Type
REMARK                         _______ _______ _______ _____ _____    ______ ____
ROOT
ATOM      1  P   UNL     1     -16.405  -0.847  -3.664  0.00  0.00    +0.263 P 
ATOM      2  O   UNL     1     -17.346  -2.014  -3.650  0.00  0.00    -0.281 OA
ENDROOT
BRANCH   1   3
ATOM      3  C   UNL     1     -16.693  -0.632  -5.121  0.00  0.00    +0.041 A 
ATOM      4  C   UNL     1     -17.991  -0.355  -5.627  0.00  0.00    +0.014 A 
ATOM      5  C   UNL     1     -18.269  -0.172  -6.988  0.00  0.00    +0.001 A 
ATOM      6  C   UNL     1     -17.253  -0.286  -7.924  0.00  0.00    +0.000 A 
ATOM      7  C   UNL     1     -15.970  -0.601  -7.500  0.00  0.00    +0.001 A 
ATOM      8  C   UNL     1     -15.710  -0.778  -6.135  0.00  0.00    +0.014 A 
ENDBRANCH   1   3
BRANCH   1   9
ATOM      9  C   UNL     1     -15.463   0.321  -3.679  0.00  0.00    +0.041 A 
ATOM     10  C   UNL     1     -15.892   1.656  -3.893  0.00  0.00    +0.014 A 
ATOM     11  C   UNL     1     -15.031   2.760  -3.872  0.00  0.00    +0.001 A 
ATOM     12  C   UNL     1     -13.680   2.579  -3.610  0.00  0.00    +0.000 A 
ATOM     13  C   UNL     1     -13.203   1.301  -3.356  0.00  0.00    +0.001 A 
ATOM     14  C   UNL     1     -14.080   0.210  -3.378  0.00  0.00    +0.014 A 
ENDBRANCH   1   9
BRANCH   1  15
ATOM     15  O   UNL     1     -16.116  -1.061  -2.208  0.00  0.00    -0.318 OA
BRANCH  15  20
ATOM     16  C   UNL     1     -15.394  -4.050   0.322  0.00  0.00    +0.003 C 
ATOM     17  C   UNL     1     -14.254  -4.783  -0.497  0.00  0.00    +0.000 C 
ATOM     18  C   UNL     1     -13.420  -3.828  -1.298  0.00  0.00    +0.003 C 
ATOM     19  C   UNL     1     -14.708  -3.201  -2.158  0.00  0.00    +0.032 C 
ATOM     20  C   UNL     1     -15.624  -2.359  -1.583  0.00  0.00    +0.127 C 
ATOM     21  C   UNL     1     -15.815  -2.594  -0.115  0.00  0.00    +0.032 C 
ENDBRANCH  15  20
ENDBRANCH   1  15
TORSDOF 4
ENDMDL
MODEL 9
REMARK VINA RESULT:      -7.0      1.577      5.927
REMARK  Name = min_compound964.pdb
REMARK  4 active torsions:
REMARK  status: ('A' for Active; 'I' for Inactive)
REMARK    1  A    between atoms: _5  and  _7
REMARK    2  A    between atoms: _7  and  _9
REMARK    3  A    between atoms: _9  and  _10
REMARK    4  A    between atoms: _9  and  _16
REMARK                            x       y       z     vdW  Elec       q    Type
REMARK                         _______ _______ _______ _____ _____    ______ ____
ROOT
ATOM      1  P   UNL     1     -13.474   2.068 -16.464  0.00  0.00    +0.263 P 
ATOM      2  O   UNL     1     -14.076   0.868 -15.796  0.00  0.00    -0.281 OA
ENDROOT
BRANCH   1   3
ATOM      3  C   UNL     1     -12.175   1.334 -16.613  0.00  0.00    +0.041 A 
ATOM      4  C   UNL     1     -11.132   1.387 -15.650  0.00  0.00    +0.014 A 
ATOM      5  C   UNL     1      -9.909   0.719 -15.792  0.00  0.00    +0.001 A 
ATOM      6  C   UNL     1      -9.656  -0.024 -16.935  0.00  0.00    +0.000 A 
ATOM      7  C   UNL     1     -10.615  -0.081 -17.936  0.00  0.00    +0.001 A 
ATOM      8  C   UNL     1     -11.832   0.592 -17.775  0.00  0.00    +0.014 A 
ENDBRANCH   1   3
BRANCH   1   9
ATOM      9  C   UNL     1     -12.872   3.269 -17.133  0.00  0.00    +0.041 A 
ATOM     10  C   UNL     1     -13.255   3.703 -18.428  0.00  0.00    +0.014 A 
ATOM     11  C   UNL     1     -12.729   4.843 -19.049  0.00  0.00    +0.001 A 
ATOM     12  C   UNL     1     -11.797   5.626 -18.384  0.00  0.00    +0.000 A 
ATOM     13  C   UNL     1     -11.408   5.276 -17.099  0.00  0.00    +0.001 A 
ATOM     14  C   UNL     1     -11.947   4.134 -16.492  0.00  0.00    +0.014 A 
ENDBRANCH   1   9
BRANCH   1  15
ATOM     15  O   UNL     1     -14.774   2.802 -16.315  0.00  0.00    -0.318 OA
BRANCH  15  20
ATOM     16  C   UNL     1     -17.392   2.906 -13.317  0.00  0.00    +0.003 C 
ATOM     17  C   UNL     1     -16.786   4.129 -12.516  0.00  0.00    +0.000 C 
ATOM     18  C   UNL     1     -16.142   5.142 -13.417  0.00  0.00    +0.003 C 
ATOM     19  C   UNL     1     -15.070   4.060 -14.103  0.00  0.00    +0.032 C 
ATOM     20  C   UNL     1     -15.475   3.106 -14.999  0.00  0.00    +0.127 C 
ATOM     21  C   UNL     1     -16.887   2.648 -14.790  0.00  0.00    +0.032 C 
ENDBRANCH  15  20
ENDBRANCH   1  15
TORSDOF 4
ENDMDL
