MODEL 1
REMARK VINA RESULT:      -5.5      0.000      0.000
REMARK  Name = min_compound4.pdb
REMARK  5 active torsions:
REMARK  status: ('A' for Active; 'I' for Inactive)
REMARK    1  A    between atoms: _3  and  _7
REMARK    2  A    between atoms: _7  and  _8
REMARK    3  A    between atoms: _8  and  _9
REMARK    4  A    between atoms: _9  and  _10
REMARK    5  A    between atoms: _10  and  _11
REMARK                            x       y       z     vdW  Elec       q    Type
REMARK                         _______ _______ _______ _____ _____    ______ ____
ROOT
ATOM      1  N   UNL     1     -11.690   4.630 -17.519  0.00  0.00    -0.263 NA
ATOM      2  C   UNL     1     -10.707   4.850 -16.624  0.00  0.00    +0.111 A 
ATOM      3  C   UNL     1     -10.351   3.945 -15.639  0.00  0.00    +0.020 A 
ATOM      4  C   UNL     1     -11.043   2.738 -15.564  0.00  0.00    +0.006 A 
ATOM      5  C   UNL     1     -12.067   2.463 -16.474  0.00  0.00    -0.029 A 
ATOM      6  C   UNL     1     -12.343   3.449 -17.421  0.00  0.00    +0.114 A 
ENDROOT
BRANCH   5   7
ATOM      7  C   UNL     1     -12.889   1.199 -16.480  0.00  0.00    +0.036 C 
BRANCH   7   8
ATOM      8  C   UNL     1     -12.130  -0.114 -16.703  0.00  0.00    +0.005 C 
BRANCH   8   9
ATOM      9  C   UNL     1     -11.056   0.043 -17.783  0.00  0.00    +0.000 C 
BRANCH   9  10
ATOM     10  C   UNL     1      -9.730  -0.577 -17.343  0.00  0.00    -0.003 C 
ATOM     11  C   UNL     1      -9.683  -0.784 -15.838  0.00  0.00    +0.004 C 
ENDBRANCH   9  10
ENDBRANCH   8   9
ENDBRANCH   7   8
ENDBRANCH   5   7
TORSDOF 4
ENDMDL
MODEL 2
REMARK VINA RESULT:      -5.4      1.822      4.671
REMARK  Name = min_compound4.pdb
REMARK  5 active torsions:
REMARK  status: ('A' for Active; 'I' for Inactive)
REMARK    1  A    between atoms: _3  and  _7
REMARK    2  A    between atoms: _7  and  _8
REMARK    3  A    between atoms: _8  and  _9
REMARK    4  A    between atoms: _9  and  _10
REMARK    5  A    between atoms: _10  and  _11
REMARK                            x       y       z     vdW  Elec       q    Type
REMARK                         _______ _______ _______ _____ _____    ______ ____
ROOT
ATOM      1  N   UNL     1     -10.977  -0.101 -17.953  0.00  0.00    -0.263 NA
ATOM      2  C   UNL     1     -10.136  -0.890 -17.256  0.00  0.00    +0.111 A 
ATOM      3  C   UNL     1      -9.663  -0.578 -15.993  0.00  0.00    +0.020 A 
ATOM      4  C   UNL     1     -10.076   0.615 -15.404  0.00  0.00    +0.006 A 
ATOM      5  C   UNL     1     -10.952   1.464 -16.087  0.00  0.00    -0.029 A 
ATOM      6  C   UNL     1     -11.361   1.051 -17.355  0.00  0.00    +0.114 A 
ENDROOT
BRANCH   5   7
ATOM      7  C   UNL     1     -11.455   2.782 -15.554  0.00  0.00    +0.036 C 
BRANCH   7   8
ATOM      8  C   UNL     1     -10.439   3.927 -15.482  0.00  0.00    +0.005 C 
BRANCH   8   9
ATOM      9  C   UNL     1     -10.429   4.743 -16.777  0.00  0.00    +0.000 C 
BRANCH   9  10
ATOM     10  C   UNL     1     -11.850   5.067 -17.240  0.00  0.00    -0.003 C 
ATOM     11  C   UNL     1     -11.943   6.473 -17.811  0.00  0.00    +0.004 C 
ENDBRANCH   9  10
ENDBRANCH   8   9
ENDBRANCH   7   8
ENDBRANCH   5   7
TORSDOF 4
ENDMDL
MODEL 3
REMARK VINA RESULT:      -5.3     11.049     12.008
REMARK  Name = min_compound4.pdb
REMARK  5 active torsions:
REMARK  status: ('A' for Active; 'I' for Inactive)
REMARK    1  A    between atoms: _3  and  _7
REMARK    2  A    between atoms: _7  and  _8
REMARK    3  A    between atoms: _8  and  _9
REMARK    4  A    between atoms: _9  and  _10
REMARK    5  A    between atoms: _10  and  _11
REMARK                            x       y       z     vdW  Elec       q    Type
REMARK                         _______ _______ _______ _____ _____    ______ ____
ROOT
ATOM      1  N   UNL     1     -16.913  -0.385  -7.955  0.00  0.00    -0.263 NA
ATOM      2  C   UNL     1     -16.832   0.891  -8.383  0.00  0.00    +0.111 A 
ATOM      3  C   UNL     1     -15.841   1.771  -7.984  0.00  0.00    +0.020 A 
ATOM      4  C   UNL     1     -14.870   1.319  -7.093  0.00  0.00    +0.006 A 
ATOM      5  C   UNL     1     -14.910   0.002  -6.626  0.00  0.00    -0.029 A 
ATOM      6  C   UNL     1     -15.955  -0.795  -7.092  0.00  0.00    +0.114 A 
ENDROOT
BRANCH   5   7
ATOM      7  C   UNL     1     -13.921  -0.591  -5.654  0.00  0.00    +0.036 C 
BRANCH   7   8
ATOM      8  C   UNL     1     -14.460  -0.964  -4.268  0.00  0.00    +0.005 C 
BRANCH   8   9
ATOM      9  C   UNL     1     -14.641   0.277  -3.391  0.00  0.00    +0.000 C 
BRANCH   9  10
ATOM     10  C   UNL     1     -13.360   1.109  -3.332  0.00  0.00    -0.003 C 
ATOM     11  C   UNL     1     -13.631   2.573  -3.638  0.00  0.00    +0.004 C 
ENDBRANCH   9  10
ENDBRANCH   8   9
ENDBRANCH   7   8
ENDBRANCH   5   7
TORSDOF 4
ENDMDL
MODEL 4
REMARK VINA RESULT:      -5.2      1.864      4.217
REMARK  Name = min_compound4.pdb
REMARK  5 active torsions:
REMARK  status: ('A' for Active; 'I' for Inactive)
REMARK    1  A    between atoms: _3  and  _7
REMARK    2  A    between atoms: _7  and  _8
REMARK    3  A    between atoms: _8  and  _9
REMARK    4  A    between atoms: _9  and  _10
REMARK    5  A    between atoms: _10  and  _11
REMARK                            x       y       z     vdW  Elec       q    Type
REMARK                         _______ _______ _______ _____ _____    ______ ____
ROOT
ATOM      1  N   UNL     1      -9.256   0.243 -17.264  0.00  0.00    -0.263 NA
ATOM      2  C   UNL     1      -9.655  -0.818 -16.535  0.00  0.00    +0.111 A 
ATOM      3  C   UNL     1     -10.974  -1.057 -16.189  0.00  0.00    +0.020 A 
ATOM      4  C   UNL     1     -11.947  -0.156 -16.615  0.00  0.00    +0.006 A 
ATOM      5  C   UNL     1     -11.582   0.956 -17.378  0.00  0.00    -0.029 A 
ATOM      6  C   UNL     1     -10.224   1.100 -17.664  0.00  0.00    +0.114 A 
ENDROOT
BRANCH   5   7
ATOM      7  C   UNL     1     -12.545   2.001 -17.883  0.00  0.00    +0.036 C 
BRANCH   7   8
ATOM      8  C   UNL     1     -13.396   2.719 -16.829  0.00  0.00    +0.005 C 
BRANCH   8   9
ATOM      9  C   UNL     1     -12.524   3.552 -15.886  0.00  0.00    +0.000 C 
BRANCH   9  10
ATOM     10  C   UNL     1     -11.596   4.485 -16.666  0.00  0.00    -0.003 C 
ATOM     11  C   UNL     1     -10.180   4.451 -16.115  0.00  0.00    +0.004 C 
ENDBRANCH   9  10
ENDBRANCH   8   9
ENDBRANCH   7   8
ENDBRANCH   5   7
TORSDOF 4
ENDMDL
MODEL 5
REMARK VINA RESULT:      -5.1     11.110     12.147
REMARK  Name = min_compound4.pdb
REMARK  5 active torsions:
REMARK  status: ('A' for Active; 'I' for Inactive)
REMARK    1  A    between atoms: _3  and  _7
REMARK    2  A    between atoms: _7  and  _8
REMARK    3  A    between atoms: _8  and  _9
REMARK    4  A    between atoms: _9  and  _10
REMARK    5  A    between atoms: _10  and  _11
REMARK                            x       y       z     vdW  Elec       q    Type
REMARK                         _______ _______ _______ _____ _____    ______ ____
ROOT
ATOM      1  N   UNL     1     -16.401   1.766  -7.496  0.00  0.00    -0.263 NA
ATOM      2  C   UNL     1     -17.083   0.845  -8.207  0.00  0.00    +0.111 A 
ATOM      3  C   UNL     1     -16.832  -0.514  -8.139  0.00  0.00    +0.020 A 
ATOM      4  C   UNL     1     -15.821  -0.962  -7.291  0.00  0.00    +0.006 A 
ATOM      5  C   UNL     1     -15.091  -0.045  -6.530  0.00  0.00    -0.029 A 
ATOM      6  C   UNL     1     -15.427   1.300  -6.681  0.00  0.00    +0.114 A 
ENDROOT
BRANCH   5   7
ATOM      7  C   UNL     1     -13.971  -0.413  -5.590  0.00  0.00    +0.036 C 
BRANCH   7   8
ATOM      8  C   UNL     1     -14.376  -0.901  -4.195  0.00  0.00    +0.005 C 
BRANCH   8   9
ATOM      9  C   UNL     1     -14.468   0.262  -3.205  0.00  0.00    +0.000 C 
BRANCH   9  10
ATOM     10  C   UNL     1     -13.247   1.177  -3.308  0.00  0.00    -0.003 C 
ATOM     11  C   UNL     1     -13.650   2.611  -3.614  0.00  0.00    +0.004 C 
ENDBRANCH   9  10
ENDBRANCH   8   9
ENDBRANCH   7   8
ENDBRANCH   5   7
TORSDOF 4
ENDMDL
MODEL 6
REMARK VINA RESULT:      -5.0      2.752      4.956
REMARK  Name = min_compound4.pdb
REMARK  5 active torsions:
REMARK  status: ('A' for Active; 'I' for Inactive)
REMARK    1  A    between atoms: _3  and  _7
REMARK    2  A    between atoms: _7  and  _8
REMARK    3  A    between atoms: _8  and  _9
REMARK    4  A    between atoms: _9  and  _10
REMARK    5  A    between atoms: _10  and  _11
REMARK                            x       y       z     vdW  Elec       q    Type
REMARK                         _______ _______ _______ _____ _____    ______ ____
ROOT
ATOM      1  N   UNL     1      -9.698   0.434 -15.744  0.00  0.00    -0.263 NA
ATOM      2  C   UNL     1     -10.295  -0.700 -16.160  0.00  0.00    +0.111 A 
ATOM      3  C   UNL     1     -11.623  -0.770 -16.546  0.00  0.00    +0.020 A 
ATOM      4  C   UNL     1     -12.388   0.393 -16.507  0.00  0.00    +0.006 A 
ATOM      5  C   UNL     1     -11.811   1.594 -16.087  0.00  0.00    -0.029 A 
ATOM      6  C   UNL     1     -10.467   1.547 -15.717  0.00  0.00    +0.114 A 
ENDROOT
BRANCH   5   7
ATOM      7  C   UNL     1     -12.545   2.909 -15.993  0.00  0.00    +0.036 C 
BRANCH   7   8
ATOM      8  C   UNL     1     -14.040   2.888 -16.332  0.00  0.00    +0.005 C 
BRANCH   8   9
ATOM      9  C   UNL     1     -14.888   3.278 -15.119  0.00  0.00    +0.000 C 
BRANCH   9  10
ATOM     10  C   UNL     1     -16.053   2.308 -14.920  0.00  0.00    -0.003 C 
ATOM     11  C   UNL     1     -16.855   2.649 -13.674  0.00  0.00    +0.004 C 
ENDBRANCH   9  10
ENDBRANCH   8   9
ENDBRANCH   7   8
ENDBRANCH   5   7
TORSDOF 4
ENDMDL
MODEL 7
REMARK VINA RESULT:      -5.0      1.560      2.322
REMARK  Name = min_compound4.pdb
REMARK  5 active torsions:
REMARK  status: ('A' for Active; 'I' for Inactive)
REMARK    1  A    between atoms: _3  and  _7
REMARK    2  A    between atoms: _7  and  _8
REMARK    3  A    between atoms: _8  and  _9
REMARK    4  A    between atoms: _9  and  _10
REMARK    5  A    between atoms: _10  and  _11
REMARK                            x       y       z     vdW  Elec       q    Type
REMARK                         _______ _______ _______ _____ _____    ______ ____
ROOT
ATOM      1  N   UNL     1     -13.873   4.535 -16.724  0.00  0.00    -0.263 NA
ATOM      2  C   UNL     1     -13.505   5.606 -17.455  0.00  0.00    +0.111 A 
ATOM      3  C   UNL     1     -12.188   5.979 -17.658  0.00  0.00    +0.020 A 
ATOM      4  C   UNL     1     -11.182   5.209 -17.077  0.00  0.00    +0.006 A 
ATOM      5  C   UNL     1     -11.516   4.087 -16.314  0.00  0.00    -0.029 A 
ATOM      6  C   UNL     1     -12.874   3.807 -16.173  0.00  0.00    +0.114 A 
ENDROOT
BRANCH   5   7
ATOM      7  C   UNL     1     -10.515   3.189 -15.630  0.00  0.00    +0.036 C 
BRANCH   7   8
ATOM      8  C   UNL     1     -10.630   1.688 -15.916  0.00  0.00    +0.005 C 
BRANCH   8   9
ATOM      9  C   UNL     1     -10.093   1.345 -17.308  0.00  0.00    +0.000 C 
BRANCH   9  10
ATOM     10  C   UNL     1      -9.317   0.028 -17.296  0.00  0.00    -0.003 C 
ATOM     11  C   UNL     1      -9.626  -0.790 -16.051  0.00  0.00    +0.004 C 
ENDBRANCH   9  10
ENDBRANCH   8   9
ENDBRANCH   7   8
ENDBRANCH   5   7
TORSDOF 4
ENDMDL
MODEL 8
REMARK VINA RESULT:      -4.8      2.216      4.387
REMARK  Name = min_compound4.pdb
REMARK  5 active torsions:
REMARK  status: ('A' for Active; 'I' for Inactive)
REMARK    1  A    between atoms: _3  and  _7
REMARK    2  A    between atoms: _7  and  _8
REMARK    3  A    between atoms: _8  and  _9
REMARK    4  A    between atoms: _9  and  _10
REMARK    5  A    between atoms: _10  and  _11
REMARK                            x       y       z     vdW  Elec       q    Type
REMARK                         _______ _______ _______ _____ _____    ______ ____
ROOT
ATOM      1  N   UNL     1      -9.854  -0.180 -15.331  0.00  0.00    -0.263 NA
ATOM      2  C   UNL     1      -9.522  -0.485 -16.601  0.00  0.00    +0.111 A 
ATOM      3  C   UNL     1      -9.580   0.420 -17.646  0.00  0.00    +0.020 A 
ATOM      4  C   UNL     1     -10.003   1.720 -17.378  0.00  0.00    +0.006 A 
ATOM      5  C   UNL     1     -10.353   2.084 -16.075  0.00  0.00    -0.029 A 
ATOM      6  C   UNL     1     -10.261   1.090 -15.101  0.00  0.00    +0.114 A 
ENDROOT
BRANCH   5   7
ATOM      7  C   UNL     1     -10.835   3.455 -15.670  0.00  0.00    +0.036 C 
BRANCH   7   8
ATOM      8  C   UNL     1     -12.138   3.943 -16.312  0.00  0.00    +0.005 C 
BRANCH   8   9
ATOM      9  C   UNL     1     -13.341   3.147 -15.800  0.00  0.00    +0.000 C 
BRANCH   9  10
ATOM     10  C   UNL     1     -14.267   2.739 -16.946  0.00  0.00    -0.003 C 
ATOM     11  C   UNL     1     -13.517   2.658 -18.267  0.00  0.00    +0.004 C 
ENDBRANCH   9  10
ENDBRANCH   8   9
ENDBRANCH   7   8
ENDBRANCH   5   7
TORSDOF 4
ENDMDL
MODEL 9
REMARK VINA RESULT:      -4.7     11.536     12.482
REMARK  Name = min_compound4.pdb
REMARK  5 active torsions:
REMARK  status: ('A' for Active; 'I' for Inactive)
REMARK    1  A    between atoms: _3  and  _7
REMARK    2  A    between atoms: _7  and  _8
REMARK    3  A    between atoms: _8  and  _9
REMARK    4  A    between atoms: _9  and  _10
REMARK    5  A    between atoms: _10  and  _11
REMARK                            x       y       z     vdW  Elec       q    Type
REMARK                         _______ _______ _______ _____ _____    ______ ____
ROOT
ATOM      1  N   UNL     1     -14.727  -1.702  -3.565  0.00  0.00    -0.263 NA
ATOM      2  C   UNL     1     -14.351  -0.745  -2.693  0.00  0.00    +0.111 A 
ATOM      3  C   UNL     1     -13.878   0.497  -3.077  0.00  0.00    +0.020 A 
ATOM      4  C   UNL     1     -13.785   0.782  -4.437  0.00  0.00    +0.006 A 
ATOM      5  C   UNL     1     -14.169  -0.177  -5.379  0.00  0.00    -0.029 A 
ATOM      6  C   UNL     1     -14.626  -1.395  -4.879  0.00  0.00    +0.114 A 
ENDROOT
BRANCH   5   7
ATOM      7  C   UNL     1     -14.100   0.016  -6.873  0.00  0.00    +0.036 C 
BRANCH   7   8
ATOM      8  C   UNL     1     -14.591   1.364  -7.415  0.00  0.00    +0.005 C 
BRANCH   8   9
ATOM      9  C   UNL     1     -16.105   1.353  -7.639  0.00  0.00    +0.000 C 
BRANCH   9  10
ATOM     10  C   UNL     1     -16.595  -0.032  -8.062  0.00  0.00    -0.003 C 
ATOM     11  C   UNL     1     -17.730  -0.517  -7.173  0.00  0.00    +0.004 C 
ENDBRANCH   9  10
ENDBRANCH   8   9
ENDBRANCH   7   8
ENDBRANCH   5   7
TORSDOF 4
ENDMDL
