MODEL 1
REMARK VINA RESULT:      -7.8      0.000      0.000
REMARK  Name = min_compound993.pdb
REMARK  8 active torsions:
REMARK  status: ('A' for Active; 'I' for Inactive)
REMARK    1  A    between atoms: _3  and  _17
REMARK    2  A    between atoms: _4  and  _18
REMARK    3  A    between atoms: _9  and  _14
REMARK    4  A    between atoms: _11  and  _13
REMARK    5  A    between atoms: _14  and  _17
REMARK    6  A    between atoms: _18  and  _19
REMARK    7  A    between atoms: _18  and  _20
REMARK    8  A    between atoms: _18  and  _21
REMARK                            x       y       z     vdW  Elec       q    Type
REMARK                         _______ _______ _______ _____ _____    ______ ____
ROOT
ATOM      1  N   UNL     1     -14.185   4.279 -15.208  0.00  0.00    -0.216 N 
ATOM      2  H   UNL     1     -13.926   5.214 -15.527  0.00  0.00    +0.174 HD
ENDROOT
BRANCH   1   4
ATOM      3  C   UNL     1     -13.840   2.044 -16.318  0.00  0.00    +0.025 A 
ATOM      4  C   UNL     1     -13.378   3.250 -15.793  0.00  0.00    +0.048 A 
ATOM      5  C   UNL     1     -11.997   3.417 -15.635  0.00  0.00    +0.025 A 
ATOM      6  C   UNL     1     -11.098   2.416 -16.010  0.00  0.00    +0.006 A 
ATOM      7  C   UNL     1     -11.555   1.204 -16.560  0.00  0.00    -0.042 A 
ATOM      8  C   UNL     1     -12.942   1.046 -16.731  0.00  0.00    +0.006 A 
BRANCH   7   9
ATOM      9  C   UNL     1     -10.583   0.094 -16.831  0.00  0.00    -0.013 C 
ATOM     10  C   UNL     1      -9.611  -1.016 -17.102  0.00  0.00    +0.015 C 
ATOM     11  C   UNL     1     -11.527  -0.887 -16.201  0.00  0.00    +0.015 C 
ATOM     12  C   UNL     1      -9.639   1.075 -17.461  0.00  0.00    +0.015 C 
ENDBRANCH   7   9
ENDBRANCH   1   4
BRANCH   1  13
ATOM     13  S   UNL     1     -15.857   4.241 -15.029  0.00  0.00    +0.072 S 
ATOM     14  O   UNL     1     -16.472   3.081 -15.626  0.00  0.00    -0.150 OA
ATOM     15  O   UNL     1     -16.302   5.584 -15.336  0.00  0.00    -0.150 OA
BRANCH  13  16
ATOM     16  C   UNL     1     -15.986   4.032 -13.263  0.00  0.00    +0.109 A 
ATOM     17  C   UNL     1     -16.989   3.225 -12.726  0.00  0.00    +0.030 A 
ATOM     18  C   UNL     1     -17.104   3.104 -11.338  0.00  0.00    +0.024 A 
ATOM     19  C   UNL     1     -16.203   3.750 -10.485  0.00  0.00    +0.025 A 
ATOM     20  C   UNL     1     -15.239   4.599 -11.040  0.00  0.00    +0.024 A 
ATOM     21  C   UNL     1     -15.111   4.726 -12.426  0.00  0.00    +0.030 A 
BRANCH  19  22
ATOM     22  N   UNL     1     -16.412   3.733  -9.100  0.00  0.00    -0.358 N 
ATOM     23  H   UNL     1     -15.667   4.171  -8.568  0.00  0.00    +0.142 HD
ATOM     24  H   UNL     1     -17.329   4.066  -8.819  0.00  0.00    +0.142 HD
ENDBRANCH  19  22
ENDBRANCH  13  16
ENDBRANCH   1  13
TORSDOF 5
ENDMDL
MODEL 2
REMARK VINA RESULT:      -7.8      2.635      7.118
REMARK  Name = min_compound993.pdb
REMARK  8 active torsions:
REMARK  status: ('A' for Active; 'I' for Inactive)
REMARK    1  A    between atoms: _3  and  _17
REMARK    2  A    between atoms: _4  and  _18
REMARK    3  A    between atoms: _9  and  _14
REMARK    4  A    between atoms: _11  and  _13
REMARK    5  A    between atoms: _14  and  _17
REMARK    6  A    between atoms: _18  and  _19
REMARK    7  A    between atoms: _18  and  _20
REMARK    8  A    between atoms: _18  and  _21
REMARK                            x       y       z     vdW  Elec       q    Type
REMARK                         _______ _______ _______ _____ _____    ______ ____
ROOT
ATOM      1  N   UNL     1     -14.530   2.697 -16.823  0.00  0.00    -0.216 N 
ATOM      2  H   UNL     1     -15.246   2.609 -17.545  0.00  0.00    +0.174 HD
ENDROOT
BRANCH   1   4
ATOM      3  C   UNL     1     -14.467   4.193 -14.797  0.00  0.00    +0.025 A 
ATOM      4  C   UNL     1     -15.049   3.203 -15.587  0.00  0.00    +0.048 A 
ATOM      5  C   UNL     1     -16.133   2.489 -15.061  0.00  0.00    +0.025 A 
ATOM      6  C   UNL     1     -16.635   2.768 -13.788  0.00  0.00    +0.006 A 
ATOM      7  C   UNL     1     -16.066   3.779 -12.992  0.00  0.00    -0.042 A 
ATOM      8  C   UNL     1     -14.989   4.505 -13.530  0.00  0.00    +0.006 A 
BRANCH   7   9
ATOM      9  C   UNL     1     -16.536   3.971 -11.581  0.00  0.00    -0.013 C 
ATOM     10  C   UNL     1     -17.006   4.163 -10.169  0.00  0.00    +0.015 C 
ATOM     11  C   UNL     1     -15.207   4.565 -11.219  0.00  0.00    +0.015 C 
ATOM     12  C   UNL     1     -17.865   3.377 -11.943  0.00  0.00    +0.015 C 
ENDBRANCH   7   9
ENDBRANCH   1   4
BRANCH   1  13
ATOM     13  S   UNL     1     -13.102   3.182 -17.566  0.00  0.00    +0.072 S 
ATOM     14  O   UNL     1     -12.576   4.421 -17.047  0.00  0.00    -0.150 OA
ATOM     15  O   UNL     1     -13.325   2.981 -18.983  0.00  0.00    -0.150 OA
BRANCH  13  16
ATOM     16  C   UNL     1     -12.000   1.893 -17.018  0.00  0.00    +0.109 A 
ATOM     17  C   UNL     1     -11.228   2.074 -15.870  0.00  0.00    +0.030 A 
ATOM     18  C   UNL     1     -10.337   1.071 -15.475  0.00  0.00    +0.024 A 
ATOM     19  C   UNL     1     -10.240  -0.125 -16.194  0.00  0.00    +0.025 A 
ATOM     20  C   UNL     1     -10.982  -0.266 -17.373  0.00  0.00    +0.024 A 
ATOM     21  C   UNL     1     -11.878   0.728 -17.777  0.00  0.00    +0.030 A 
BRANCH  19  22
ATOM     22  N   UNL     1      -9.250  -1.060 -15.870  0.00  0.00    -0.358 N 
ATOM     23  H   UNL     1      -9.342  -1.942 -16.364  0.00  0.00    +0.142 HD
ATOM     24  H   UNL     1      -8.304  -0.691 -15.919  0.00  0.00    +0.142 HD
ENDBRANCH  19  22
ENDBRANCH  13  16
ENDBRANCH   1  13
TORSDOF 5
ENDMDL
MODEL 3
REMARK VINA RESULT:      -7.5      5.084      8.833
REMARK  Name = min_compound993.pdb
REMARK  8 active torsions:
REMARK  status: ('A' for Active; 'I' for Inactive)
REMARK    1  A    between atoms: _3  and  _17
REMARK    2  A    between atoms: _4  and  _18
REMARK    3  A    between atoms: _9  and  _14
REMARK    4  A    between atoms: _11  and  _13
REMARK    5  A    between atoms: _14  and  _17
REMARK    6  A    between atoms: _18  and  _19
REMARK    7  A    between atoms: _18  and  _20
REMARK    8  A    between atoms: _18  and  _21
REMARK                            x       y       z     vdW  Elec       q    Type
REMARK                         _______ _______ _______ _____ _____    ______ ____
ROOT
ATOM      1  N   UNL     1     -17.536   1.980  -8.707  0.00  0.00    -0.216 N 
ATOM      2  H   UNL     1     -18.289   1.300  -8.597  0.00  0.00    +0.174 HD
ENDROOT
BRANCH   1   4
ATOM      3  C   UNL     1     -15.226   1.454  -7.848  0.00  0.00    +0.025 A 
ATOM      4  C   UNL     1     -16.543   1.879  -7.679  0.00  0.00    +0.048 A 
ATOM      5  C   UNL     1     -17.022   2.047  -6.373  0.00  0.00    +0.025 A 
ATOM      6  C   UNL     1     -16.202   1.815  -5.266  0.00  0.00    +0.006 A 
ATOM      7  C   UNL     1     -14.866   1.405  -5.429  0.00  0.00    -0.042 A 
ATOM      8  C   UNL     1     -14.385   1.253  -6.742  0.00  0.00    +0.006 A 
BRANCH   7   9
ATOM      9  C   UNL     1     -14.047   1.036  -4.228  0.00  0.00    -0.013 C 
ATOM     10  C   UNL     1     -13.228   0.667  -3.027  0.00  0.00    +0.015 C 
ATOM     11  C   UNL     1     -14.021   2.474  -3.803  0.00  0.00    +0.015 C 
ATOM     12  C   UNL     1     -14.073  -0.402  -4.653  0.00  0.00    +0.015 C 
ENDBRANCH   7   9
ENDBRANCH   1   4
BRANCH   1  13
ATOM     13  S   UNL     1     -18.210   3.406  -9.291  0.00  0.00    +0.072 S 
ATOM     14  O   UNL     1     -18.046   4.527  -8.398  0.00  0.00    -0.150 OA
ATOM     15  O   UNL     1     -19.508   3.027  -9.811  0.00  0.00    -0.150 OA
BRANCH  13  16
ATOM     16  C   UNL     1     -17.150   3.712 -10.691  0.00  0.00    +0.109 A 
ATOM     17  C   UNL     1     -17.490   3.214 -11.949  0.00  0.00    +0.030 A 
ATOM     18  C   UNL     1     -16.629   3.426 -13.029  0.00  0.00    +0.024 A 
ATOM     19  C   UNL     1     -15.451   4.164 -12.872  0.00  0.00    +0.025 A 
ATOM     20  C   UNL     1     -15.099   4.609 -11.593  0.00  0.00    +0.024 A 
ATOM     21  C   UNL     1     -15.953   4.406 -10.505  0.00  0.00    +0.030 A 
BRANCH  19  22
ATOM     22  N   UNL     1     -14.532   4.252 -13.925  0.00  0.00    -0.358 N 
ATOM     23  H   UNL     1     -14.902   3.945 -14.819  0.00  0.00    +0.142 HD
ATOM     24  H   UNL     1     -14.070   5.154 -13.993  0.00  0.00    +0.142 HD
ENDBRANCH  19  22
ENDBRANCH  13  16
ENDBRANCH   1  13
TORSDOF 5
ENDMDL
MODEL 4
REMARK VINA RESULT:      -7.3      4.434      6.932
REMARK  Name = min_compound993.pdb
REMARK  8 active torsions:
REMARK  status: ('A' for Active; 'I' for Inactive)
REMARK    1  A    between atoms: _3  and  _17
REMARK    2  A    between atoms: _4  and  _18
REMARK    3  A    between atoms: _9  and  _14
REMARK    4  A    between atoms: _11  and  _13
REMARK    5  A    between atoms: _14  and  _17
REMARK    6  A    between atoms: _18  and  _19
REMARK    7  A    between atoms: _18  and  _20
REMARK    8  A    between atoms: _18  and  _21
REMARK                            x       y       z     vdW  Elec       q    Type
REMARK                         _______ _______ _______ _____ _____    ______ ____
ROOT
ATOM      1  N   UNL     1     -13.657   5.033 -17.738  0.00  0.00    -0.216 N 
ATOM      2  H   UNL     1     -14.508   5.238 -17.213  0.00  0.00    +0.174 HD
ENDROOT
BRANCH   1   4
ATOM      3  C   UNL     1     -12.490   3.463 -16.151  0.00  0.00    +0.025 A 
ATOM      4  C   UNL     1     -13.072   3.776 -17.379  0.00  0.00    +0.048 A 
ATOM      5  C   UNL     1     -12.916   2.870 -18.435  0.00  0.00    +0.025 A 
ATOM      6  C   UNL     1     -12.216   1.674 -18.266  0.00  0.00    +0.006 A 
ATOM      7  C   UNL     1     -11.643   1.341 -17.025  0.00  0.00    -0.042 A 
ATOM      8  C   UNL     1     -11.815   2.246 -15.963  0.00  0.00    +0.006 A 
BRANCH   7   9
ATOM      9  C   UNL     1     -10.785   0.116 -16.903  0.00  0.00    -0.013 C 
ATOM     10  C   UNL     1      -9.927  -1.108 -16.782  0.00  0.00    +0.015 C 
ATOM     11  C   UNL     1     -11.954  -0.649 -16.357  0.00  0.00    +0.015 C 
ATOM     12  C   UNL     1      -9.616   0.882 -17.449  0.00  0.00    +0.015 C 
ENDBRANCH   7   9
ENDBRANCH   1   4
BRANCH   1  13
ATOM     13  S   UNL     1     -12.829   6.479 -17.963  0.00  0.00    +0.072 S 
ATOM     14  O   UNL     1     -11.499   6.473 -17.404  0.00  0.00    -0.150 OA
ATOM     15  O   UNL     1     -13.786   7.519 -17.644  0.00  0.00    -0.150 OA
BRANCH  13  16
ATOM     16  C   UNL     1     -12.635   6.467 -19.735  0.00  0.00    +0.109 A 
ATOM     17  C   UNL     1     -13.566   5.804 -20.536  0.00  0.00    +0.030 A 
ATOM     18  C   UNL     1     -13.378   5.768 -21.921  0.00  0.00    +0.024 A 
ATOM     19  C   UNL     1     -12.293   6.420 -22.515  0.00  0.00    +0.025 A 
ATOM     20  C   UNL     1     -11.341   7.032 -21.692  0.00  0.00    +0.024 A 
ATOM     21  C   UNL     1     -11.518   7.079 -20.306  0.00  0.00    +0.030 A 
BRANCH  19  22
ATOM     22  N   UNL     1     -12.041   6.260 -23.883  0.00  0.00    -0.358 N 
ATOM     23  H   UNL     1     -11.183   6.703 -24.196  0.00  0.00    +0.142 HD
ATOM     24  H   UNL     1     -12.115   5.300 -24.206  0.00  0.00    +0.142 HD
ENDBRANCH  19  22
ENDBRANCH  13  16
ENDBRANCH   1  13
TORSDOF 5
ENDMDL
MODEL 5
REMARK VINA RESULT:      -7.2      4.267      6.216
REMARK  Name = min_compound993.pdb
REMARK  8 active torsions:
REMARK  status: ('A' for Active; 'I' for Inactive)
REMARK    1  A    between atoms: _3  and  _17
REMARK    2  A    between atoms: _4  and  _18
REMARK    3  A    between atoms: _9  and  _14
REMARK    4  A    between atoms: _11  and  _13
REMARK    5  A    between atoms: _14  and  _17
REMARK    6  A    between atoms: _18  and  _19
REMARK    7  A    between atoms: _18  and  _20
REMARK    8  A    between atoms: _18  and  _21
REMARK                            x       y       z     vdW  Elec       q    Type
REMARK                         _______ _______ _______ _____ _____    ______ ____
ROOT
ATOM      1  N   UNL     1     -16.527   3.715  -9.453  0.00  0.00    -0.216 N 
ATOM      2  H   UNL     1     -16.347   4.640  -9.060  0.00  0.00    +0.174 HD
ENDROOT
BRANCH   1   4
ATOM      3  C   UNL     1     -17.256   2.928 -11.733  0.00  0.00    +0.025 A 
ATOM      4  C   UNL     1     -16.463   3.699 -10.884  0.00  0.00    +0.048 A 
ATOM      5  C   UNL     1     -15.372   4.382 -11.437  0.00  0.00    +0.025 A 
ATOM      6  C   UNL     1     -15.093   4.315 -12.804  0.00  0.00    +0.006 A 
ATOM      7  C   UNL     1     -15.900   3.555 -13.670  0.00  0.00    -0.042 A 
ATOM      8  C   UNL     1     -17.003   2.884 -13.114  0.00  0.00    +0.006 A 
BRANCH   7   9
ATOM      9  C   UNL     1     -15.504   3.391 -15.107  0.00  0.00    -0.013 C 
ATOM     10  C   UNL     1     -15.107   3.227 -16.545  0.00  0.00    +0.015 C 
ATOM     11  C   UNL     1     -14.189   4.053 -14.820  0.00  0.00    +0.015 C 
ATOM     12  C   UNL     1     -16.819   2.730 -15.395  0.00  0.00    +0.015 C 
ENDBRANCH   7   9
ENDBRANCH   1   4
BRANCH   1  13
ATOM     13  S   UNL     1     -17.705   2.974  -8.510  0.00  0.00    +0.072 S 
ATOM     14  O   UNL     1     -18.807   2.445  -9.277  0.00  0.00    -0.150 OA
ATOM     15  O   UNL     1     -17.915   3.870  -7.391  0.00  0.00    -0.150 OA
BRANCH  13  16
ATOM     16  C   UNL     1     -16.792   1.570  -7.898  0.00  0.00    +0.109 A 
ATOM     17  C   UNL     1     -17.427   0.339  -7.737  0.00  0.00    +0.030 A 
ATOM     18  C   UNL     1     -16.709  -0.742  -7.217  0.00  0.00    +0.024 A 
ATOM     19  C   UNL     1     -15.354  -0.614  -6.895  0.00  0.00    +0.025 A 
ATOM     20  C   UNL     1     -14.748   0.643  -7.012  0.00  0.00    +0.024 A 
ATOM     21  C   UNL     1     -15.454   1.731  -7.533  0.00  0.00    +0.030 A 
BRANCH  19  22
ATOM     22  N   UNL     1     -14.684  -1.660  -6.249  0.00  0.00    -0.358 N 
ATOM     23  H   UNL     1     -13.771  -1.401  -5.888  0.00  0.00    +0.142 HD
ATOM     24  H   UNL     1     -15.247  -2.141  -5.553  0.00  0.00    +0.142 HD
ENDBRANCH  19  22
ENDBRANCH  13  16
ENDBRANCH   1  13
TORSDOF 5
ENDMDL
MODEL 6
REMARK VINA RESULT:      -7.1      4.045      4.888
REMARK  Name = min_compound993.pdb
REMARK  8 active torsions:
REMARK  status: ('A' for Active; 'I' for Inactive)
REMARK    1  A    between atoms: _3  and  _17
REMARK    2  A    between atoms: _4  and  _18
REMARK    3  A    between atoms: _9  and  _14
REMARK    4  A    between atoms: _11  and  _13
REMARK    5  A    between atoms: _14  and  _17
REMARK    6  A    between atoms: _18  and  _19
REMARK    7  A    between atoms: _18  and  _20
REMARK    8  A    between atoms: _18  and  _21
REMARK                            x       y       z     vdW  Elec       q    Type
REMARK                         _______ _______ _______ _____ _____    ______ ____
ROOT
ATOM      1  N   UNL     1     -14.495   5.263 -17.446  0.00  0.00    -0.216 N 
ATOM      2  H   UNL     1     -15.118   5.519 -16.679  0.00  0.00    +0.174 HD
ENDROOT
BRANCH   1   4
ATOM      3  C   UNL     1     -13.159   3.693 -15.997  0.00  0.00    +0.025 A 
ATOM      4  C   UNL     1     -13.776   4.049 -17.195  0.00  0.00    +0.048 A 
ATOM      5  C   UNL     1     -13.529   3.262 -18.327  0.00  0.00    +0.025 A 
ATOM      6  C   UNL     1     -12.703   2.137 -18.260  0.00  0.00    +0.006 A 
ATOM      7  C   UNL     1     -12.092   1.760 -17.050  0.00  0.00    -0.042 A 
ATOM      8  C   UNL     1     -12.356   2.544 -15.913  0.00  0.00    +0.006 A 
BRANCH   7   9
ATOM      9  C   UNL     1     -11.107   0.629 -17.033  0.00  0.00    -0.013 C 
ATOM     10  C   UNL     1     -10.122  -0.502 -17.015  0.00  0.00    +0.015 C 
ATOM     11  C   UNL     1     -12.187  -0.305 -16.573  0.00  0.00    +0.015 C 
ATOM     12  C   UNL     1     -10.027   1.563 -17.493  0.00  0.00    +0.015 C 
ENDBRANCH   7   9
ENDBRANCH   1   4
BRANCH   1  13
ATOM     13  S   UNL     1     -13.849   6.680 -18.081  0.00  0.00    +0.072 S 
ATOM     14  O   UNL     1     -14.076   6.831 -19.497  0.00  0.00    -0.150 OA
ATOM     15  O   UNL     1     -12.524   6.783 -17.505  0.00  0.00    -0.150 OA
BRANCH  13  16
ATOM     16  C   UNL     1     -14.873   7.892 -17.269  0.00  0.00    +0.109 A 
ATOM     17  C   UNL     1     -15.602   8.811 -18.025  0.00  0.00    +0.030 A 
ATOM     18  C   UNL     1     -16.368   9.782 -17.374  0.00  0.00    +0.024 A 
ATOM     19  C   UNL     1     -16.443   9.819 -15.978  0.00  0.00    +0.025 A 
ATOM     20  C   UNL     1     -15.662   8.925 -15.236  0.00  0.00    +0.024 A 
ATOM     21  C   UNL     1     -14.894   7.947 -15.875  0.00  0.00    +0.030 A 
BRANCH  19  22
ATOM     22  N   UNL     1     -17.100  10.878 -15.338  0.00  0.00    -0.358 N 
ATOM     23  H   UNL     1     -17.446  11.589 -15.974  0.00  0.00    +0.142 HD
ATOM     24  H   UNL     1     -17.808  10.581 -14.674  0.00  0.00    +0.142 HD
ENDBRANCH  19  22
ENDBRANCH  13  16
ENDBRANCH   1  13
TORSDOF 5
ENDMDL
MODEL 7
REMARK VINA RESULT:      -7.1      2.921      6.922
REMARK  Name = min_compound993.pdb
REMARK  8 active torsions:
REMARK  status: ('A' for Active; 'I' for Inactive)
REMARK    1  A    between atoms: _3  and  _17
REMARK    2  A    between atoms: _4  and  _18
REMARK    3  A    between atoms: _9  and  _14
REMARK    4  A    between atoms: _11  and  _13
REMARK    5  A    between atoms: _14  and  _17
REMARK    6  A    between atoms: _18  and  _19
REMARK    7  A    between atoms: _18  and  _20
REMARK    8  A    between atoms: _18  and  _21
REMARK                            x       y       z     vdW  Elec       q    Type
REMARK                         _______ _______ _______ _____ _____    ______ ____
ROOT
ATOM      1  N   UNL     1     -14.699   4.836 -17.046  0.00  0.00    -0.216 N 
ATOM      2  H   UNL     1     -15.442   5.267 -17.597  0.00  0.00    +0.174 HD
ENDROOT
BRANCH   1   4
ATOM      3  C   UNL     1     -14.768   3.977 -14.678  0.00  0.00    +0.025 A 
ATOM      4  C   UNL     1     -14.898   4.983 -15.635  0.00  0.00    +0.048 A 
ATOM      5  C   UNL     1     -15.454   6.205 -15.238  0.00  0.00    +0.025 A 
ATOM      6  C   UNL     1     -15.853   6.425 -13.918  0.00  0.00    +0.006 A 
ATOM      7  C   UNL     1     -15.707   5.423 -12.942  0.00  0.00    -0.042 A 
ATOM      8  C   UNL     1     -15.133   4.202 -13.340  0.00  0.00    +0.006 A 
BRANCH   7   9
ATOM      9  C   UNL     1     -16.262   5.635 -11.565  0.00  0.00    -0.013 C 
ATOM     10  C   UNL     1     -16.817   5.847 -10.187  0.00  0.00    +0.015 C 
ATOM     11  C   UNL     1     -17.288   6.575 -12.123  0.00  0.00    +0.015 C 
ATOM     12  C   UNL     1     -15.236   4.694 -11.006  0.00  0.00    +0.015 C 
ENDBRANCH   7   9
ENDBRANCH   1   4
BRANCH   1  13
ATOM     13  S   UNL     1     -13.249   5.064 -17.866  0.00  0.00    +0.072 S 
ATOM     14  O   UNL     1     -12.615   6.327 -17.572  0.00  0.00    -0.150 OA
ATOM     15  O   UNL     1     -13.512   4.641 -19.226  0.00  0.00    -0.150 OA
BRANCH  13  16
ATOM     16  C   UNL     1     -12.246   3.803 -17.105  0.00  0.00    +0.109 A 
ATOM     17  C   UNL     1     -12.578   2.456 -17.261  0.00  0.00    +0.030 A 
ATOM     18  C   UNL     1     -11.807   1.480 -16.624  0.00  0.00    +0.024 A 
ATOM     19  C   UNL     1     -10.685   1.834 -15.866  0.00  0.00    +0.025 A 
ATOM     20  C   UNL     1     -10.400   3.191 -15.676  0.00  0.00    +0.024 A 
ATOM     21  C   UNL     1     -11.161   4.177 -16.310  0.00  0.00    +0.030 A 
BRANCH  19  22
ATOM     22  N   UNL     1     -10.005   0.861 -15.123  0.00  0.00    -0.358 N 
ATOM     23  H   UNL     1     -10.583   0.070 -14.857  0.00  0.00    +0.142 HD
ATOM     24  H   UNL     1      -9.125   0.569 -15.537  0.00  0.00    +0.142 HD
ENDBRANCH  19  22
ENDBRANCH  13  16
ENDBRANCH   1  13
TORSDOF 5
ENDMDL
MODEL 8
REMARK VINA RESULT:      -7.1      1.307      1.931
REMARK  Name = min_compound993.pdb
REMARK  8 active torsions:
REMARK  status: ('A' for Active; 'I' for Inactive)
REMARK    1  A    between atoms: _3  and  _17
REMARK    2  A    between atoms: _4  and  _18
REMARK    3  A    between atoms: _9  and  _14
REMARK    4  A    between atoms: _11  and  _13
REMARK    5  A    between atoms: _14  and  _17
REMARK    6  A    between atoms: _18  and  _19
REMARK    7  A    between atoms: _18  and  _20
REMARK    8  A    between atoms: _18  and  _21
REMARK                            x       y       z     vdW  Elec       q    Type
REMARK                         _______ _______ _______ _____ _____    ______ ____
ROOT
ATOM      1  N   UNL     1     -16.414   4.332 -16.048  0.00  0.00    -0.216 N 
ATOM      2  H   UNL     1     -17.148   3.652 -16.248  0.00  0.00    +0.174 HD
ENDROOT
BRANCH   1   4
ATOM      3  C   UNL     1     -13.895   4.389 -16.035  0.00  0.00    +0.025 A 
ATOM      4  C   UNL     1     -15.119   3.731 -15.929  0.00  0.00    +0.048 A 
ATOM      5  C   UNL     1     -15.116   2.330 -15.893  0.00  0.00    +0.025 A 
ATOM      6  C   UNL     1     -13.922   1.607 -15.942  0.00  0.00    +0.006 A 
ATOM      7  C   UNL     1     -12.681   2.265 -16.029  0.00  0.00    -0.042 A 
ATOM      8  C   UNL     1     -12.688   3.671 -16.049  0.00  0.00    +0.006 A 
BRANCH   7   9
ATOM      9  C   UNL     1     -11.425   1.467 -16.214  0.00  0.00    -0.013 C 
ATOM     10  C   UNL     1     -10.168   0.669 -16.398  0.00  0.00    +0.015 C 
ATOM     11  C   UNL     1     -12.227   0.336 -16.785  0.00  0.00    +0.015 C 
ATOM     12  C   UNL     1     -10.622   2.598 -15.642  0.00  0.00    +0.015 C 
ENDBRANCH   7   9
ENDBRANCH   1   4
BRANCH   1  13
ATOM     13  S   UNL     1     -17.057   5.500 -15.022  0.00  0.00    +0.072 S 
ATOM     14  O   UNL     1     -18.498   5.564 -15.057  0.00  0.00    -0.150 OA
ATOM     15  O   UNL     1     -16.235   6.676 -15.224  0.00  0.00    -0.150 OA
BRANCH  13  16
ATOM     16  C   UNL     1     -16.616   4.814 -13.437  0.00  0.00    +0.109 A 
ATOM     17  C   UNL     1     -17.370   3.775 -12.890  0.00  0.00    +0.030 A 
ATOM     18  C   UNL     1     -17.037   3.276 -11.628  0.00  0.00    +0.024 A 
ATOM     19  C   UNL     1     -15.936   3.777 -10.926  0.00  0.00    +0.025 A 
ATOM     20  C   UNL     1     -15.225   4.855 -11.465  0.00  0.00    +0.024 A 
ATOM     21  C   UNL     1     -15.545   5.362 -12.728  0.00  0.00    +0.030 A 
BRANCH  19  22
ATOM     22  N   UNL     1     -15.697   3.366  -9.609  0.00  0.00    -0.358 N 
ATOM     23  H   UNL     1     -16.345   2.659  -9.275  0.00  0.00    +0.142 HD
ATOM     24  H   UNL     1     -14.730   3.114  -9.426  0.00  0.00    +0.142 HD
ENDBRANCH  19  22
ENDBRANCH  13  16
ENDBRANCH   1  13
TORSDOF 5
ENDMDL
MODEL 9
REMARK VINA RESULT:      -7.1      2.903      3.738
REMARK  Name = min_compound993.pdb
REMARK  8 active torsions:
REMARK  status: ('A' for Active; 'I' for Inactive)
REMARK    1  A    between atoms: _3  and  _17
REMARK    2  A    between atoms: _4  and  _18
REMARK    3  A    between atoms: _9  and  _14
REMARK    4  A    between atoms: _11  and  _13
REMARK    5  A    between atoms: _14  and  _17
REMARK    6  A    between atoms: _18  and  _19
REMARK    7  A    between atoms: _18  and  _20
REMARK    8  A    between atoms: _18  and  _21
REMARK                            x       y       z     vdW  Elec       q    Type
REMARK                         _______ _______ _______ _____ _____    ______ ____
ROOT
ATOM      1  N   UNL     1     -14.673   4.265 -16.759  0.00  0.00    -0.216 N 
ATOM      2  H   UNL     1     -15.375   4.239 -17.500  0.00  0.00    +0.174 HD
ENDROOT
BRANCH   1   4
ATOM      3  C   UNL     1     -13.473   2.471 -18.061  0.00  0.00    +0.025 A 
ATOM      4  C   UNL     1     -13.612   3.324 -16.967  0.00  0.00    +0.048 A 
ATOM      5  C   UNL     1     -12.762   3.136 -15.870  0.00  0.00    +0.025 A 
ATOM      6  C   UNL     1     -11.787   2.136 -15.872  0.00  0.00    +0.006 A 
ATOM      7  C   UNL     1     -11.628   1.284 -16.980  0.00  0.00    -0.042 A 
ATOM      8  C   UNL     1     -12.472   1.486 -18.086  0.00  0.00    +0.006 A 
BRANCH   7   9
ATOM      9  C   UNL     1     -10.665   0.136 -16.906  0.00  0.00    -0.013 C 
ATOM     10  C   UNL     1      -9.703  -1.012 -16.832  0.00  0.00    +0.015 C 
ATOM     11  C   UNL     1     -11.756  -0.743 -16.369  0.00  0.00    +0.015 C 
ATOM     12  C   UNL     1      -9.575   1.015 -17.443  0.00  0.00    +0.015 C 
ENDBRANCH   7   9
ENDBRANCH   1   4
BRANCH   1  13
ATOM     13  S   UNL     1     -15.467   4.550 -15.305  0.00  0.00    +0.072 S 
ATOM     14  O   UNL     1     -14.687   4.195 -14.145  0.00  0.00    -0.150 OA
ATOM     15  O   UNL     1     -16.812   4.050 -15.503  0.00  0.00    -0.150 OA
BRANCH  13  16
ATOM     16  C   UNL     1     -15.557   6.330 -15.332  0.00  0.00    +0.109 A 
ATOM     17  C   UNL     1     -15.077   7.039 -16.434  0.00  0.00    +0.030 A 
ATOM     18  C   UNL     1     -15.116   8.436 -16.424  0.00  0.00    +0.024 A 
ATOM     19  C   UNL     1     -15.666   9.129 -15.341  0.00  0.00    +0.025 A 
ATOM     20  C   UNL     1     -16.093   8.405 -14.222  0.00  0.00    +0.024 A 
ATOM     21  C   UNL     1     -16.062   7.007 -14.220  0.00  0.00    +0.030 A 
BRANCH  19  22
ATOM     22  N   UNL     1     -15.574  10.525 -15.281  0.00  0.00    -0.358 N 
ATOM     23  H   UNL     1     -16.304  10.961 -14.726  0.00  0.00    +0.142 HD
ATOM     24  H   UNL     1     -14.651  10.867 -15.033  0.00  0.00    +0.142 HD
ENDBRANCH  19  22
ENDBRANCH  13  16
ENDBRANCH   1  13
TORSDOF 5
ENDMDL
