MODEL 1
REMARK VINA RESULT:      -7.5      0.000      0.000
REMARK  Name = min_compound961.pdb
REMARK  4 active torsions:
REMARK  status: ('A' for Active; 'I' for Inactive)
REMARK    1  A    between atoms: _10  and  _12
REMARK    2  A    between atoms: _11  and  _13
REMARK    3  A    between atoms: _13  and  _16
REMARK    4  A    between atoms: _18  and  _20
REMARK                            x       y       z     vdW  Elec       q    Type
REMARK                         _______ _______ _______ _____ _____    ______ ____
ROOT
ATOM      1  C   UNL     1     -13.375  -5.765  -1.243  0.00  0.00    +0.002 A 
ATOM      2  C   UNL     1     -14.556  -6.407  -1.275  0.00  0.00    +0.001 A 
ATOM      3  C   UNL     1     -15.749  -5.659  -1.637  0.00  0.00    +0.016 A 
ATOM      4  C   UNL     1     -15.711  -4.240  -1.985  0.00  0.00    +0.030 A 
ATOM      5  S   UNL     1     -17.185  -3.464  -2.422  0.00  0.00    -0.100 S 
ATOM      6  C   UNL     1     -16.583  -1.986  -3.273  0.00  0.00    +0.167 C 
ATOM      7  C   UNL     1     -15.357  -1.475  -2.914  0.00  0.00    +0.130 C 
ATOM      8  N   UNL     1     -14.372  -2.251  -2.257  0.00  0.00    -0.334 N 
ATOM      9  H   UNL     1     -13.516  -2.139  -2.785  0.00  0.00    +0.147 HD
ATOM     10  C   UNL     1     -14.534  -3.586  -1.943  0.00  0.00    +0.041 A 
ATOM     11  C   UNL     1     -13.340  -4.348  -1.565  0.00  0.00    +0.024 A 
ENDROOT
BRANCH   7  12
ATOM     12  C   UNL     1     -14.901  -0.034  -3.155  0.00  0.00    -0.019 A 
ATOM     13  C   UNL     1     -13.554   0.366  -3.091  0.00  0.00    +0.006 A 
ATOM     14  C   UNL     1     -13.122   1.674  -3.350  0.00  0.00    +0.007 A 
ATOM     15  C   UNL     1     -14.033   2.640  -3.747  0.00  0.00    +0.084 A 
ATOM     16  C   UNL     1     -15.371   2.269  -3.886  0.00  0.00    +0.273 A 
ATOM     17  C   UNL     1     -15.800   0.960  -3.602  0.00  0.00    +0.089 A 
BRANCH  16  18
ATOM     18  N   UNL     1     -16.343   3.258  -4.362  0.00  0.00    +0.080 N 
ATOM     19  O   UNL     1     -17.237   2.885  -5.139  0.00  0.00    +0.041 OA
ATOM     20  O   UNL     1     -16.219   4.433  -3.973  0.00  0.00    -0.576 OA
ENDBRANCH  16  18
ENDBRANCH   7  12
BRANCH   6  21
ATOM     21  N   UNL     1     -17.604  -1.638  -4.111  0.00  0.00    -0.189 NA
ATOM     22  H   UNL     1     -17.201  -1.347  -5.002  0.00  0.00    +0.155 HD
BRANCH  21  23
ATOM     23  O   UNL     1     -18.521  -2.663  -4.359  0.00  0.00    -0.314 OA
ATOM     24  H   UNL     1     -19.294  -2.553  -3.784  0.00  0.00    +0.236 HD
ENDBRANCH  21  23
ENDBRANCH   6  21
TORSDOF 4
ENDMDL
MODEL 2
REMARK VINA RESULT:      -7.3      2.892      3.658
REMARK  Name = min_compound961.pdb
REMARK  4 active torsions:
REMARK  status: ('A' for Active; 'I' for Inactive)
REMARK    1  A    between atoms: _10  and  _12
REMARK    2  A    between atoms: _11  and  _13
REMARK    3  A    between atoms: _13  and  _16
REMARK    4  A    between atoms: _18  and  _20
REMARK                            x       y       z     vdW  Elec       q    Type
REMARK                         _______ _______ _______ _____ _____    ______ ____
ROOT
ATOM      1  C   UNL     1     -18.158  -6.101  -1.767  0.00  0.00    +0.002 A 
ATOM      2  C   UNL     1     -17.327  -6.912  -1.090  0.00  0.00    +0.001 A 
ATOM      3  C   UNL     1     -15.928  -6.539  -0.970  0.00  0.00    +0.016 A 
ATOM      4  C   UNL     1     -15.392  -5.305  -1.542  0.00  0.00    +0.030 A 
ATOM      5  S   UNL     1     -13.722  -4.953  -1.314  0.00  0.00    -0.100 S 
ATOM      6  C   UNL     1     -13.670  -3.179  -1.661  0.00  0.00    +0.167 C 
ATOM      7  C   UNL     1     -14.601  -2.651  -2.526  0.00  0.00    +0.130 C 
ATOM      8  N   UNL     1     -15.828  -3.298  -2.809  0.00  0.00    -0.334 N 
ATOM      9  H   UNL     1     -16.557  -2.611  -2.666  0.00  0.00    +0.147 HD
ATOM     10  C   UNL     1     -16.215  -4.491  -2.232  0.00  0.00    +0.041 A 
ATOM     11  C   UNL     1     -17.621  -4.885  -2.357  0.00  0.00    +0.024 A 
ENDROOT
BRANCH   7  12
ATOM     12  C   UNL     1     -14.444  -1.335  -3.290  0.00  0.00    -0.019 A 
ATOM     13  C   UNL     1     -13.888  -0.177  -2.719  0.00  0.00    +0.006 A 
ATOM     14  C   UNL     1     -13.703   1.021  -3.422  0.00  0.00    +0.007 A 
ATOM     15  C   UNL     1     -14.021   1.091  -4.769  0.00  0.00    +0.084 A 
ATOM     16  C   UNL     1     -14.517  -0.055  -5.392  0.00  0.00    +0.273 A 
ATOM     17  C   UNL     1     -14.721  -1.246  -4.673  0.00  0.00    +0.089 A 
BRANCH  16  18
ATOM     18  N   UNL     1     -14.805  -0.021  -6.829  0.00  0.00    +0.080 N 
ATOM     19  O   UNL     1     -15.551  -0.891  -7.304  0.00  0.00    +0.041 OA
ATOM     20  O   UNL     1     -14.276   0.875  -7.510  0.00  0.00    -0.576 OA
ENDBRANCH  16  18
ENDBRANCH   7  12
BRANCH   6  21
ATOM     21  N   UNL     1     -12.575  -2.732  -0.978  0.00  0.00    -0.189 NA
ATOM     22  H   UNL     1     -12.883  -2.398  -0.065  0.00  0.00    +0.155 HD
BRANCH  21  23
ATOM     23  O   UNL     1     -11.585  -3.700  -0.779  0.00  0.00    -0.314 OA
ATOM     24  H   UNL     1     -10.833  -3.302  -0.314  0.00  0.00    +0.236 HD
ENDBRANCH  21  23
ENDBRANCH   6  21
TORSDOF 4
ENDMDL
MODEL 3
REMARK VINA RESULT:      -7.3      2.864      6.892
REMARK  Name = min_compound961.pdb
REMARK  4 active torsions:
REMARK  status: ('A' for Active; 'I' for Inactive)
REMARK    1  A    between atoms: _10  and  _12
REMARK    2  A    between atoms: _11  and  _13
REMARK    3  A    between atoms: _13  and  _16
REMARK    4  A    between atoms: _18  and  _20
REMARK                            x       y       z     vdW  Elec       q    Type
REMARK                         _______ _______ _______ _____ _____    ______ ____
ROOT
ATOM      1  C   UNL     1     -13.590   2.240  -3.486  0.00  0.00    +0.002 A 
ATOM      2  C   UNL     1     -14.801   2.627  -3.920  0.00  0.00    +0.001 A 
ATOM      3  C   UNL     1     -15.856   1.633  -4.029  0.00  0.00    +0.016 A 
ATOM      4  C   UNL     1     -15.654   0.231  -3.668  0.00  0.00    +0.030 A 
ATOM      5  S   UNL     1     -16.985  -0.853  -3.813  0.00  0.00    -0.100 S 
ATOM      6  C   UNL     1     -16.452  -2.230  -2.770  0.00  0.00    +0.167 C 
ATOM      7  C   UNL     1     -15.103  -2.460  -2.623  0.00  0.00    +0.130 C 
ATOM      8  N   UNL     1     -14.131  -1.460  -2.867  0.00  0.00    -0.334 N 
ATOM      9  H   UNL     1     -13.535  -1.432  -2.050  0.00  0.00    +0.147 HD
ATOM     10  C   UNL     1     -14.440  -0.169  -3.243  0.00  0.00    +0.041 A 
ATOM     11  C   UNL     1     -13.381   0.841  -3.150  0.00  0.00    +0.024 A 
ENDROOT
BRANCH   7  12
ATOM     12  C   UNL     1     -14.479  -3.792  -2.199  0.00  0.00    -0.019 A 
ATOM     13  C   UNL     1     -13.416  -3.884  -1.284  0.00  0.00    +0.006 A 
ATOM     14  C   UNL     1     -12.865  -5.101  -0.859  0.00  0.00    +0.007 A 
ATOM     15  C   UNL     1     -13.405  -6.299  -1.300  0.00  0.00    +0.084 A 
ATOM     16  C   UNL     1     -14.503  -6.253  -2.159  0.00  0.00    +0.273 A 
ATOM     17  C   UNL     1     -15.035  -5.028  -2.599  0.00  0.00    +0.089 A 
BRANCH  16  18
ATOM     18  N   UNL     1     -15.128  -7.507  -2.591  0.00  0.00    +0.080 N 
ATOM     19  O   UNL     1     -16.154  -7.890  -2.007  0.00  0.00    +0.041 OA
ATOM     20  O   UNL     1     -14.592  -8.137  -3.519  0.00  0.00    -0.576 OA
ENDBRANCH  16  18
ENDBRANCH   7  12
BRANCH   6  21
ATOM     21  N   UNL     1     -17.615  -2.831  -2.381  0.00  0.00    -0.189 NA
ATOM     22  H   UNL     1     -18.299  -2.101  -2.179  0.00  0.00    +0.155 HD
BRANCH  21  23
ATOM     23  O   UNL     1     -18.165  -3.694  -3.334  0.00  0.00    -0.314 OA
ATOM     24  H   UNL     1     -18.931  -3.270  -3.750  0.00  0.00    +0.236 HD
ENDBRANCH  21  23
ENDBRANCH   6  21
TORSDOF 4
ENDMDL
MODEL 4
REMARK VINA RESULT:      -7.1     12.690     14.727
REMARK  Name = min_compound961.pdb
REMARK  4 active torsions:
REMARK  status: ('A' for Active; 'I' for Inactive)
REMARK    1  A    between atoms: _10  and  _12
REMARK    2  A    between atoms: _11  and  _13
REMARK    3  A    between atoms: _13  and  _16
REMARK    4  A    between atoms: _18  and  _20
REMARK                            x       y       z     vdW  Elec       q    Type
REMARK                         _______ _______ _______ _____ _____    ______ ____
ROOT
ATOM      1  C   UNL     1     -17.997   3.334 -12.778  0.00  0.00    +0.002 A 
ATOM      2  C   UNL     1     -18.513   4.552 -13.015  0.00  0.00    +0.001 A 
ATOM      3  C   UNL     1     -17.761   5.481 -13.842  0.00  0.00    +0.016 A 
ATOM      4  C   UNL     1     -16.474   5.134 -14.442  0.00  0.00    +0.030 A 
ATOM      5  S   UNL     1     -15.685   6.307 -15.427  0.00  0.00    -0.100 S 
ATOM      6  C   UNL     1     -14.514   5.284 -16.349  0.00  0.00    +0.167 C 
ATOM      7  C   UNL     1     -14.052   4.126 -15.766  0.00  0.00    +0.130 C 
ATOM      8  N   UNL     1     -14.742   3.476 -14.715  0.00  0.00    -0.334 N 
ATOM      9  H   UNL     1     -14.839   2.507 -14.989  0.00  0.00    +0.147 HD
ATOM     10  C   UNL     1     -15.943   3.920 -14.200  0.00  0.00    +0.041 A 
ATOM     11  C   UNL     1     -16.705   2.997 -13.353  0.00  0.00    +0.024 A 
ENDROOT
BRANCH   7  12
ATOM     12  C   UNL     1     -12.759   3.403 -16.151  0.00  0.00    -0.019 A 
ATOM     13  C   UNL     1     -11.501   4.031 -16.157  0.00  0.00    +0.006 A 
ATOM     14  C   UNL     1     -10.307   3.368 -16.469  0.00  0.00    +0.007 A 
ATOM     15  C   UNL     1     -10.317   2.009 -16.739  0.00  0.00    +0.084 A 
ATOM     16  C   UNL     1     -11.536   1.333 -16.681  0.00  0.00    +0.273 A 
ATOM     17  C   UNL     1     -12.734   2.011 -16.390  0.00  0.00    +0.089 A 
BRANCH  16  18
ATOM     18  N   UNL     1     -11.564  -0.116 -16.903  0.00  0.00    +0.080 N 
ATOM     19  O   UNL     1     -10.601  -0.646 -17.480  0.00  0.00    +0.041 OA
ATOM     20  O   UNL     1     -12.561  -0.748 -16.512  0.00  0.00    -0.576 OA
ENDBRANCH  16  18
ENDBRANCH   7  12
BRANCH   6  21
ATOM     21  N   UNL     1     -14.277   5.989 -17.494  0.00  0.00    -0.189 NA
ATOM     22  H   UNL     1     -15.080   6.592 -17.670  0.00  0.00    +0.155 HD
BRANCH  21  23
ATOM     23  O   UNL     1     -13.131   6.789 -17.451  0.00  0.00    -0.314 OA
ATOM     24  H   UNL     1     -12.700   6.784 -18.320  0.00  0.00    +0.236 HD
ENDBRANCH  21  23
ENDBRANCH   6  21
TORSDOF 4
ENDMDL
MODEL 5
REMARK VINA RESULT:      -7.1      2.654      3.429
REMARK  Name = min_compound961.pdb
REMARK  4 active torsions:
REMARK  status: ('A' for Active; 'I' for Inactive)
REMARK    1  A    between atoms: _10  and  _12
REMARK    2  A    between atoms: _11  and  _13
REMARK    3  A    between atoms: _13  and  _16
REMARK    4  A    between atoms: _18  and  _20
REMARK                            x       y       z     vdW  Elec       q    Type
REMARK                         _______ _______ _______ _____ _____    ______ ____
ROOT
ATOM      1  C   UNL     1     -18.935  -5.135  -1.447  0.00  0.00    +0.002 A 
ATOM      2  C   UNL     1     -18.217  -5.909  -0.616  0.00  0.00    +0.001 A 
ATOM      3  C   UNL     1     -16.779  -5.710  -0.543  0.00  0.00    +0.016 A 
ATOM      4  C   UNL     1     -16.086  -4.689  -1.328  0.00  0.00    +0.030 A 
ATOM      5  S   UNL     1     -14.382  -4.528  -1.141  0.00  0.00    -0.100 S 
ATOM      6  C   UNL     1     -14.094  -2.875  -1.815  0.00  0.00    +0.167 C 
ATOM      7  C   UNL     1     -14.952  -2.399  -2.780  0.00  0.00    +0.130 C 
ATOM      8  N   UNL     1     -16.258  -2.918  -2.957  0.00  0.00    -0.334 N 
ATOM      9  H   UNL     1     -16.886  -2.125  -2.958  0.00  0.00    +0.147 HD
ATOM     10  C   UNL     1     -16.797  -3.918  -2.173  0.00  0.00    +0.041 A 
ATOM     11  C   UNL     1     -18.245  -4.136  -2.246  0.00  0.00    +0.024 A 
ENDROOT
BRANCH   7  12
ATOM     12  C   UNL     1     -14.625  -1.284  -3.775  0.00  0.00    -0.019 A 
ATOM     13  C   UNL     1     -14.503  -1.502  -5.158  0.00  0.00    +0.006 A 
ATOM     14  C   UNL     1     -14.244  -0.480  -6.082  0.00  0.00    +0.007 A 
ATOM     15  C   UNL     1     -14.151   0.835  -5.655  0.00  0.00    +0.084 A 
ATOM     16  C   UNL     1     -14.330   1.103  -4.297  0.00  0.00    +0.273 A 
ATOM     17  C   UNL     1     -14.567   0.070  -3.374  0.00  0.00    +0.089 A 
BRANCH  16  18
ATOM     18  N   UNL     1     -14.296   2.493  -3.831  0.00  0.00    +0.080 N 
ATOM     19  O   UNL     1     -15.359   3.132  -3.791  0.00  0.00    +0.041 OA
ATOM     20  O   UNL     1     -13.195   2.972  -3.505  0.00  0.00    -0.576 OA
ENDBRANCH  16  18
ENDBRANCH   7  12
BRANCH   6  21
ATOM     21  N   UNL     1     -12.943  -2.458  -1.209  0.00  0.00    -0.189 NA
ATOM     22  H   UNL     1     -13.195  -1.943  -0.365  0.00  0.00    +0.155 HD
BRANCH  21  23
ATOM     23  O   UNL     1     -12.074  -3.492  -0.847  0.00  0.00    -0.314 OA
ATOM     24  H   UNL     1     -11.620  -3.259  -0.023  0.00  0.00    +0.236 HD
ENDBRANCH  21  23
ENDBRANCH   6  21
TORSDOF 4
ENDMDL
MODEL 6
REMARK VINA RESULT:      -7.1     11.846     14.057
REMARK  Name = min_compound961.pdb
REMARK  4 active torsions:
REMARK  status: ('A' for Active; 'I' for Inactive)
REMARK    1  A    between atoms: _10  and  _12
REMARK    2  A    between atoms: _11  and  _13
REMARK    3  A    between atoms: _13  and  _16
REMARK    4  A    between atoms: _18  and  _20
REMARK                            x       y       z     vdW  Elec       q    Type
REMARK                         _______ _______ _______ _____ _____    ______ ____
ROOT
ATOM      1  C   UNL     1     -15.931   5.125 -10.620  0.00  0.00    +0.002 A 
ATOM      2  C   UNL     1     -17.151   5.526 -11.015  0.00  0.00    +0.001 A 
ATOM      3  C   UNL     1     -17.473   5.492 -12.432  0.00  0.00    +0.016 A 
ATOM      4  C   UNL     1     -16.527   5.022 -13.442  0.00  0.00    +0.030 A 
ATOM      5  S   UNL     1     -17.028   5.002 -15.090  0.00  0.00    -0.100 S 
ATOM      6  C   UNL     1     -15.823   3.874 -15.826  0.00  0.00    +0.167 C 
ATOM      7  C   UNL     1     -14.575   3.780 -15.254  0.00  0.00    +0.130 C 
ATOM      8  N   UNL     1     -14.323   4.160 -13.914  0.00  0.00    -0.334 N 
ATOM      9  H   UNL     1     -13.847   3.382 -13.477  0.00  0.00    +0.147 HD
ATOM     10  C   UNL     1     -15.297   4.630 -13.056  0.00  0.00    +0.041 A 
ATOM     11  C   UNL     1     -14.980   4.681 -11.626  0.00  0.00    +0.024 A 
ENDROOT
BRANCH   7  12
ATOM     12  C   UNL     1     -13.317   3.276 -15.965  0.00  0.00    -0.019 A 
ATOM     13  C   UNL     1     -12.233   4.110 -16.290  0.00  0.00    +0.006 A 
ATOM     14  C   UNL     1     -11.060   3.650 -16.905  0.00  0.00    +0.007 A 
ATOM     15  C   UNL     1     -10.901   2.300 -17.174  0.00  0.00    +0.084 A 
ATOM     16  C   UNL     1     -11.927   1.428 -16.809  0.00  0.00    +0.273 A 
ATOM     17  C   UNL     1     -13.110   1.900 -16.213  0.00  0.00    +0.089 A 
BRANCH  16  18
ATOM     18  N   UNL     1     -11.755  -0.011 -17.029  0.00  0.00    +0.080 N 
ATOM     19  O   UNL     1     -12.575  -0.791 -16.517  0.00  0.00    +0.041 OA
ATOM     20  O   UNL     1     -10.786  -0.387 -17.711  0.00  0.00    -0.576 OA
ENDBRANCH  16  18
ENDBRANCH   7  12
BRANCH   6  21
ATOM     21  N   UNL     1     -16.457   3.372 -16.928  0.00  0.00    -0.189 NA
ATOM     22  H   UNL     1     -15.979   2.516 -17.209  0.00  0.00    +0.155 HD
BRANCH  21  23
ATOM     23  O   UNL     1     -17.808   3.074 -16.729  0.00  0.00    -0.314 OA
ATOM     24  H   UNL     1     -18.347   3.577 -17.359  0.00  0.00    +0.236 HD
ENDBRANCH  21  23
ENDBRANCH   6  21
TORSDOF 4
ENDMDL
MODEL 7
REMARK VINA RESULT:      -7.1      3.700      6.913
REMARK  Name = min_compound961.pdb
REMARK  4 active torsions:
REMARK  status: ('A' for Active; 'I' for Inactive)
REMARK    1  A    between atoms: _10  and  _12
REMARK    2  A    between atoms: _11  and  _13
REMARK    3  A    between atoms: _13  and  _16
REMARK    4  A    between atoms: _18  and  _20
REMARK                            x       y       z     vdW  Elec       q    Type
REMARK                         _______ _______ _______ _____ _____    ______ ____
ROOT
ATOM      1  C   UNL     1     -16.911  -0.542  -8.389  0.00  0.00    +0.002 A 
ATOM      2  C   UNL     1     -16.585   0.749  -8.572  0.00  0.00    +0.001 A 
ATOM      3  C   UNL     1     -16.026   1.494  -7.457  0.00  0.00    +0.016 A 
ATOM      4  C   UNL     1     -15.788   0.889  -6.148  0.00  0.00    +0.030 A 
ATOM      5  S   UNL     1     -15.096   1.864  -4.907  0.00  0.00    -0.100 S 
ATOM      6  C   UNL     1     -14.493   0.612  -3.751  0.00  0.00    +0.167 C 
ATOM      7  C   UNL     1     -15.139  -0.602  -3.700  0.00  0.00    +0.130 C 
ATOM      8  N   UNL     1     -15.939  -1.082  -4.765  0.00  0.00    -0.334 N 
ATOM      9  H   UNL     1     -15.616  -2.019  -4.970  0.00  0.00    +0.147 HD
ATOM     10  C   UNL     1     -16.123  -0.401  -5.951  0.00  0.00    +0.041 A 
ATOM     11  C   UNL     1     -16.698  -1.138  -7.080  0.00  0.00    +0.024 A 
ENDROOT
BRANCH   7  12
ATOM     12  C   UNL     1     -15.096  -1.572  -2.517  0.00  0.00    -0.019 A 
ATOM     13  C   UNL     1     -16.122  -1.662  -1.561  0.00  0.00    +0.006 A 
ATOM     14  C   UNL     1     -16.110  -2.575  -0.497  0.00  0.00    +0.007 A 
ATOM     15  C   UNL     1     -15.077  -3.490  -0.380  0.00  0.00    +0.084 A 
ATOM     16  C   UNL     1     -14.070  -3.478  -1.345  0.00  0.00    +0.273 A 
ATOM     17  C   UNL     1     -14.077  -2.544  -2.396  0.00  0.00    +0.089 A 
BRANCH  16  18
ATOM     18  N   UNL     1     -12.998  -4.476  -1.276  0.00  0.00    +0.080 N 
ATOM     19  O   UNL     1     -11.886  -4.124  -0.851  0.00  0.00    +0.041 OA
ATOM     20  O   UNL     1     -13.251  -5.632  -1.658  0.00  0.00    -0.576 OA
ENDBRANCH  16  18
ENDBRANCH   7  12
BRANCH   6  21
ATOM     21  N   UNL     1     -13.481   1.233  -3.076  0.00  0.00    -0.189 NA
ATOM     22  H   UNL     1     -12.615   0.724  -3.259  0.00  0.00    +0.155 HD
BRANCH  21  23
ATOM     23  O   UNL     1     -13.285   2.571  -3.435  0.00  0.00    -0.314 OA
ATOM     24  H   UNL     1     -13.435   3.138  -2.662  0.00  0.00    +0.236 HD
ENDBRANCH  21  23
ENDBRANCH   6  21
TORSDOF 4
ENDMDL
MODEL 8
REMARK VINA RESULT:      -7.0      2.063      2.218
REMARK  Name = min_compound961.pdb
REMARK  4 active torsions:
REMARK  status: ('A' for Active; 'I' for Inactive)
REMARK    1  A    between atoms: _10  and  _12
REMARK    2  A    between atoms: _11  and  _13
REMARK    3  A    between atoms: _13  and  _16
REMARK    4  A    between atoms: _18  and  _20
REMARK                            x       y       z     vdW  Elec       q    Type
REMARK                         _______ _______ _______ _____ _____    ______ ____
ROOT
ATOM      1  C   UNL     1     -13.412  -6.663  -1.079  0.00  0.00    +0.002 A 
ATOM      2  C   UNL     1     -14.582  -7.067  -0.556  0.00  0.00    +0.001 A 
ATOM      3  C   UNL     1     -15.724  -6.170  -0.621  0.00  0.00    +0.016 A 
ATOM      4  C   UNL     1     -15.653  -4.853  -1.249  0.00  0.00    +0.030 A 
ATOM      5  S   UNL     1     -17.078  -3.886  -1.290  0.00  0.00    -0.100 S 
ATOM      6  C   UNL     1     -16.676  -2.694  -2.588  0.00  0.00    +0.167 C 
ATOM      7  C   UNL     1     -15.354  -2.376  -2.802  0.00  0.00    +0.130 C 
ATOM      8  N   UNL     1     -14.293  -3.218  -2.389  0.00  0.00    -0.334 N 
ATOM      9  H   UNL     1     -13.698  -3.349  -3.197  0.00  0.00    +0.147 HD
ATOM     10  C   UNL     1     -14.481  -4.434  -1.765  0.00  0.00    +0.041 A 
ATOM     11  C   UNL     1     -13.334  -5.343  -1.683  0.00  0.00    +0.024 A 
ENDROOT
BRANCH   7  12
ATOM     12  C   UNL     1     -14.857  -1.101  -3.487  0.00  0.00    -0.019 A 
ATOM     13  C   UNL     1     -14.088  -0.126  -2.827  0.00  0.00    +0.006 A 
ATOM     14  C   UNL     1     -13.594   1.026  -3.456  0.00  0.00    +0.007 A 
ATOM     15  C   UNL     1     -13.807   1.222  -4.811  0.00  0.00    +0.084 A 
ATOM     16  C   UNL     1     -14.510   0.246  -5.518  0.00  0.00    +0.273 A 
ATOM     17  C   UNL     1     -15.023  -0.895  -4.875  0.00  0.00    +0.089 A 
BRANCH  16  18
ATOM     18  N   UNL     1     -14.696   0.403  -6.964  0.00  0.00    +0.080 N 
ATOM     19  O   UNL     1     -14.022   1.258  -7.559  0.00  0.00    +0.041 OA
ATOM     20  O   UNL     1     -15.533  -0.325  -7.527  0.00  0.00    -0.576 OA
ENDBRANCH  16  18
ENDBRANCH   7  12
BRANCH   6  21
ATOM     21  N   UNL     1     -17.891  -2.288  -3.064  0.00  0.00    -0.189 NA
ATOM     22  H   UNL     1     -17.747  -1.458  -3.639  0.00  0.00    +0.155 HD
BRANCH  21  23
ATOM     23  O   UNL     1     -18.557  -3.245  -3.835  0.00  0.00    -0.314 OA
ATOM     24  H   UNL     1     -18.079  -4.088  -3.787  0.00  0.00    +0.236 HD
ENDBRANCH  21  23
ENDBRANCH   6  21
TORSDOF 4
ENDMDL
MODEL 9
REMARK VINA RESULT:      -6.8     13.840     15.844
REMARK  Name = min_compound961.pdb
REMARK  4 active torsions:
REMARK  status: ('A' for Active; 'I' for Inactive)
REMARK    1  A    between atoms: _10  and  _12
REMARK    2  A    between atoms: _11  and  _13
REMARK    3  A    between atoms: _13  and  _16
REMARK    4  A    between atoms: _18  and  _20
REMARK                            x       y       z     vdW  Elec       q    Type
REMARK                         _______ _______ _______ _____ _____    ______ ____
ROOT
ATOM      1  C   UNL     1     -15.538   8.819 -17.634  0.00  0.00    +0.002 A 
ATOM      2  C   UNL     1     -16.835   8.558 -17.401  0.00  0.00    +0.001 A 
ATOM      3  C   UNL     1     -17.217   7.213 -17.002  0.00  0.00    +0.016 A 
ATOM      4  C   UNL     1     -16.241   6.139 -16.826  0.00  0.00    +0.030 A 
ATOM      5  S   UNL     1     -16.807   4.591 -16.325  0.00  0.00    -0.100 S 
ATOM      6  C   UNL     1     -15.285   3.823 -15.721  0.00  0.00    +0.167 C 
ATOM      7  C   UNL     1     -14.086   4.220 -16.267  0.00  0.00    +0.130 C 
ATOM      8  N   UNL     1     -13.928   5.460 -16.932  0.00  0.00    -0.334 N 
ATOM      9  H   UNL     1     -13.123   5.910 -16.517  0.00  0.00    +0.147 HD
ATOM     10  C   UNL     1     -14.940   6.389 -17.070  0.00  0.00    +0.041 A 
ATOM     11  C   UNL     1     -14.569   7.745 -17.484  0.00  0.00    +0.024 A 
ENDROOT
BRANCH   7  12
ATOM     12  C   UNL     1     -12.795   3.399 -16.245  0.00  0.00    -0.019 A 
ATOM     13  C   UNL     1     -11.548   3.940 -15.885  0.00  0.00    +0.006 A 
ATOM     14  C   UNL     1     -10.368   3.187 -15.822  0.00  0.00    +0.007 A 
ATOM     15  C   UNL     1     -10.401   1.823 -16.068  0.00  0.00    +0.084 A 
ATOM     16  C   UNL     1     -11.630   1.234 -16.365  0.00  0.00    +0.273 A 
ATOM     17  C   UNL     1     -12.806   2.001 -16.449  0.00  0.00    +0.089 A 
BRANCH  16  18
ATOM     18  N   UNL     1     -11.699  -0.216 -16.570  0.00  0.00    +0.080 N 
ATOM     19  O   UNL     1     -12.783  -0.790 -16.382  0.00  0.00    +0.041 OA
ATOM     20  O   UNL     1     -10.660  -0.807 -16.912  0.00  0.00    -0.576 OA
ENDBRANCH  16  18
ENDBRANCH   7  12
BRANCH   6  21
ATOM     21  N   UNL     1     -15.712   2.886 -14.824  0.00  0.00    -0.189 NA
ATOM     22  H   UNL     1     -16.287   3.353 -14.122  0.00  0.00    +0.155 HD
BRANCH  21  23
ATOM     23  O   UNL     1     -16.465   1.851 -15.387  0.00  0.00    -0.314 OA
ATOM     24  H   UNL     1     -17.391   2.130 -15.465  0.00  0.00    +0.236 HD
ENDBRANCH  21  23
ENDBRANCH   6  21
TORSDOF 4
ENDMDL
