MODEL 1
REMARK VINA RESULT:      -7.3      0.000      0.000
REMARK  Name = min_compound967.pdb
REMARK  3 active torsions:
REMARK  status: ('A' for Active; 'I' for Inactive)
REMARK    1  A    between atoms: _1  and  _2
REMARK    2  A    between atoms: _1  and  _17
REMARK    3  A    between atoms: _8  and  _18
REMARK                            x       y       z     vdW  Elec       q    Type
REMARK                         _______ _______ _______ _____ _____    ______ ____
ROOT
ATOM      1  N   UNL     1     -12.425   3.461 -15.666  0.00  0.00    -0.293 N 
ATOM      2  H   UNL     1     -12.231   3.441 -14.674  0.00  0.00    +0.151 HD
ATOM      3  C   UNL     1     -13.732   3.467 -16.102  0.00  0.00    +0.245 C 
ATOM      4  O   UNL     1     -14.109   3.545 -17.264  0.00  0.00    -0.270 OA
ENDROOT
BRANCH   3   5
ATOM      5  C   UNL     1     -14.747   3.390 -15.025  0.00  0.00    +0.037 A 
ATOM      6  C   UNL     1     -15.833   2.512 -15.124  0.00  0.00    +0.014 A 
ATOM      7  C   UNL     1     -16.794   2.485 -14.110  0.00  0.00    +0.021 A 
ATOM      8  C   UNL     1     -16.662   3.327 -13.005  0.00  0.00    +0.041 A 
ATOM      9  C   UNL     1     -15.583   4.205 -12.906  0.00  0.00    +0.021 A 
ATOM     10 CL   UNL     1     -17.847   3.289 -11.759  0.00  0.00    -0.084 Cl
ATOM     11  C   UNL     1     -14.627   4.245 -13.924  0.00  0.00    +0.014 A 
ENDBRANCH   3   5
BRANCH   1  12
ATOM     12  C   UNL     1     -11.268   3.471 -16.514  0.00  0.00    +0.089 C 
ATOM     13  C   UNL     1     -11.004   4.577 -17.509  0.00  0.00    +0.045 C 
ATOM     14  C   UNL     1     -10.280   4.587 -16.200  0.00  0.00    +0.045 C 
BRANCH  12  15
ATOM     15  N   UNL     1     -10.740   2.086 -16.695  0.00  0.00    -0.278 NA
ATOM     16  C   UNL     1     -10.654   1.330 -15.420  0.00  0.00    +0.114 C 
ATOM     17  C   UNL     1      -9.998  -0.044 -15.627  0.00  0.00    +0.175 C 
ATOM     18  O   UNL     1     -10.722  -0.833 -16.575  0.00  0.00    -0.377 OA
ATOM     19  C   UNL     1     -10.801  -0.142 -17.825  0.00  0.00    +0.175 C 
ATOM     20  C   UNL     1     -11.471   1.231 -17.661  0.00  0.00    +0.114 C 
ENDBRANCH  12  15
ENDBRANCH   1  12
TORSDOF 3
ENDMDL
MODEL 2
REMARK VINA RESULT:      -7.3      0.073      1.115
REMARK  Name = min_compound967.pdb
REMARK  3 active torsions:
REMARK  status: ('A' for Active; 'I' for Inactive)
REMARK    1  A    between atoms: _1  and  _2
REMARK    2  A    between atoms: _1  and  _17
REMARK    3  A    between atoms: _8  and  _18
REMARK                            x       y       z     vdW  Elec       q    Type
REMARK                         _______ _______ _______ _____ _____    ______ ____
ROOT
ATOM      1  N   UNL     1     -12.419   3.522 -15.669  0.00  0.00    -0.293 N 
ATOM      2  H   UNL     1     -12.225   3.489 -14.678  0.00  0.00    +0.151 HD
ATOM      3  C   UNL     1     -13.726   3.569 -16.103  0.00  0.00    +0.245 C 
ATOM      4  O   UNL     1     -14.102   3.667 -17.265  0.00  0.00    -0.270 OA
ENDROOT
BRANCH   3   5
ATOM      5  C   UNL     1     -14.742   3.515 -15.026  0.00  0.00    +0.037 A 
ATOM      6  C   UNL     1     -14.637   4.340 -13.899  0.00  0.00    +0.014 A 
ATOM      7  C   UNL     1     -15.591   4.243 -12.882  0.00  0.00    +0.021 A 
ATOM      8  C   UNL     1     -16.642   3.333 -12.999  0.00  0.00    +0.041 A 
ATOM      9  C   UNL     1     -16.745   2.507 -14.118  0.00  0.00    +0.021 A 
ATOM     10 CL   UNL     1     -17.813   3.219 -11.744  0.00  0.00    -0.084 Cl
ATOM     11  C   UNL     1     -15.787   2.591 -15.131  0.00  0.00    +0.014 A 
ENDBRANCH   3   5
BRANCH   1  12
ATOM     12  C   UNL     1     -11.264   3.503 -16.519  0.00  0.00    +0.089 C 
ATOM     13  C   UNL     1     -10.981   4.595 -17.525  0.00  0.00    +0.045 C 
ATOM     14  C   UNL     1     -10.255   4.604 -16.217  0.00  0.00    +0.045 C 
BRANCH  12  15
ATOM     15  N   UNL     1     -10.761   2.108 -16.688  0.00  0.00    -0.278 NA
ATOM     16  C   UNL     1     -10.673   1.367 -15.405  0.00  0.00    +0.114 C 
ATOM     17  C   UNL     1     -10.043  -0.021 -15.602  0.00  0.00    +0.175 C 
ATOM     18  O   UNL     1     -10.791  -0.810 -16.532  0.00  0.00    -0.377 OA
ATOM     19  C   UNL     1     -10.872  -0.133 -17.789  0.00  0.00    +0.175 C 
ATOM     20  C   UNL     1     -11.517   1.253 -17.635  0.00  0.00    +0.114 C 
ENDBRANCH  12  15
ENDBRANCH   1  12
TORSDOF 3
ENDMDL
MODEL 3
REMARK VINA RESULT:      -6.4      3.930      5.983
REMARK  Name = min_compound967.pdb
REMARK  3 active torsions:
REMARK  status: ('A' for Active; 'I' for Inactive)
REMARK    1  A    between atoms: _1  and  _2
REMARK    2  A    between atoms: _1  and  _17
REMARK    3  A    between atoms: _8  and  _18
REMARK                            x       y       z     vdW  Elec       q    Type
REMARK                         _______ _______ _______ _____ _____    ______ ____
ROOT
ATOM      1  N   UNL     1     -12.266   4.693 -18.099  0.00  0.00    -0.293 N 
ATOM      2  H   UNL     1     -11.394   4.421 -18.532  0.00  0.00    +0.151 HD
ATOM      3  C   UNL     1     -12.791   3.918 -17.087  0.00  0.00    +0.245 C 
ATOM      4  O   UNL     1     -13.804   4.158 -16.441  0.00  0.00    -0.270 OA
ENDROOT
BRANCH   3   5
ATOM      5  C   UNL     1     -12.014   2.698 -16.771  0.00  0.00    +0.037 A 
ATOM      6  C   UNL     1     -11.130   2.672 -15.685  0.00  0.00    +0.014 A 
ATOM      7  C   UNL     1     -10.383   1.518 -15.430  0.00  0.00    +0.021 A 
ATOM      8  C   UNL     1     -10.528   0.400 -16.253  0.00  0.00    +0.041 A 
ATOM      9  C   UNL     1     -11.405   0.425 -17.337  0.00  0.00    +0.021 A 
ATOM     10 CL   UNL     1      -9.607  -1.017 -15.933  0.00  0.00    -0.084 Cl
ATOM     11  C   UNL     1     -12.143   1.581 -17.603  0.00  0.00    +0.014 A 
ENDBRANCH   3   5
BRANCH   1  12
ATOM     12  C   UNL     1     -12.862   5.887 -18.623  0.00  0.00    +0.089 C 
ATOM     13  C   UNL     1     -13.044   7.134 -17.789  0.00  0.00    +0.045 C 
ATOM     14  C   UNL     1     -11.897   7.059 -18.746  0.00  0.00    +0.045 C 
BRANCH  12  15
ATOM     15  N   UNL     1     -13.740   5.566 -19.787  0.00  0.00    -0.278 NA
ATOM     16  C   UNL     1     -13.349   4.310 -20.475  0.00  0.00    +0.114 C 
ATOM     17  C   UNL     1     -14.199   4.074 -21.735  0.00  0.00    +0.175 C 
ATOM     18  O   UNL     1     -15.593   4.006 -21.422  0.00  0.00    -0.377 OA
ATOM     19  C   UNL     1     -16.007   5.216 -20.779  0.00  0.00    +0.175 C 
ATOM     20  C   UNL     1     -15.192   5.474 -19.502  0.00  0.00    +0.114 C 
ENDBRANCH  12  15
ENDBRANCH   1  12
TORSDOF 3
ENDMDL
MODEL 4
REMARK VINA RESULT:      -6.3      3.251      6.220
REMARK  Name = min_compound967.pdb
REMARK  3 active torsions:
REMARK  status: ('A' for Active; 'I' for Inactive)
REMARK    1  A    between atoms: _1  and  _2
REMARK    2  A    between atoms: _1  and  _17
REMARK    3  A    between atoms: _8  and  _18
REMARK                            x       y       z     vdW  Elec       q    Type
REMARK                         _______ _______ _______ _____ _____    ______ ____
ROOT
ATOM      1  N   UNL     1     -14.658   3.249 -16.386  0.00  0.00    -0.293 N 
ATOM      2  H   UNL     1     -14.928   2.282 -16.273  0.00  0.00    +0.151 HD
ATOM      3  C   UNL     1     -13.322   3.571 -16.497  0.00  0.00    +0.245 C 
ATOM      4  O   UNL     1     -12.859   4.688 -16.693  0.00  0.00    -0.270 OA
ENDROOT
BRANCH   3   5
ATOM      5  C   UNL     1     -12.394   2.422 -16.382  0.00  0.00    +0.037 A 
ATOM      6  C   UNL     1     -12.708   1.185 -16.958  0.00  0.00    +0.014 A 
ATOM      7  C   UNL     1     -11.829   0.109 -16.804  0.00  0.00    +0.021 A 
ATOM      8  C   UNL     1     -10.644   0.276 -16.087  0.00  0.00    +0.041 A 
ATOM      9  C   UNL     1     -10.331   1.507 -15.509  0.00  0.00    +0.021 A 
ATOM     10 CL   UNL     1      -9.567  -1.052 -15.902  0.00  0.00    -0.084 Cl
ATOM     11  C   UNL     1     -11.213   2.581 -15.648  0.00  0.00    +0.014 A 
ENDBRANCH   3   5
BRANCH   1  12
ATOM     12  C   UNL     1     -15.741   4.188 -16.408  0.00  0.00    +0.089 C 
ATOM     13  C   UNL     1     -16.102   4.979 -17.644  0.00  0.00    +0.045 C 
ATOM     14  C   UNL     1     -16.907   3.768 -17.293  0.00  0.00    +0.045 C 
BRANCH  12  15
ATOM     15  N   UNL     1     -16.038   4.677 -15.029  0.00  0.00    -0.278 NA
ATOM     16  C   UNL     1     -15.519   3.772 -13.972  0.00  0.00    +0.114 C 
ATOM     17  C   UNL     1     -15.944   4.245 -12.573  0.00  0.00    +0.175 C 
ATOM     18  O   UNL     1     -15.480   5.570 -12.304  0.00  0.00    -0.377 OA
ATOM     19  C   UNL     1     -15.984   6.473 -13.292  0.00  0.00    +0.175 C 
ATOM     20  C   UNL     1     -15.562   6.043 -14.706  0.00  0.00    +0.114 C 
ENDBRANCH  12  15
ENDBRANCH   1  12
TORSDOF 3
ENDMDL
MODEL 5
REMARK VINA RESULT:      -6.3      3.960      6.298
REMARK  Name = min_compound967.pdb
REMARK  3 active torsions:
REMARK  status: ('A' for Active; 'I' for Inactive)
REMARK    1  A    between atoms: _1  and  _2
REMARK    2  A    between atoms: _1  and  _17
REMARK    3  A    between atoms: _8  and  _18
REMARK                            x       y       z     vdW  Elec       q    Type
REMARK                         _______ _______ _______ _____ _____    ______ ____
ROOT
ATOM      1  N   UNL     1     -12.372   4.684 -18.588  0.00  0.00    -0.293 N 
ATOM      2  H   UNL     1     -12.747   3.879 -19.071  0.00  0.00    +0.151 HD
ATOM      3  C   UNL     1     -11.577   4.500 -17.478  0.00  0.00    +0.245 C 
ATOM      4  O   UNL     1     -11.016   5.378 -16.834  0.00  0.00    -0.270 OA
ENDROOT
BRANCH   3   5
ATOM      5  C   UNL     1     -11.395   3.088 -17.071  0.00  0.00    +0.037 A 
ATOM      6  C   UNL     1     -10.625   2.758 -15.949  0.00  0.00    +0.014 A 
ATOM      7  C   UNL     1     -10.441   1.415 -15.608  0.00  0.00    +0.021 A 
ATOM      8  C   UNL     1     -11.030   0.414 -16.382  0.00  0.00    +0.041 A 
ATOM      9  C   UNL     1     -11.794   0.740 -17.503  0.00  0.00    +0.021 A 
ATOM     10 CL   UNL     1     -10.801  -1.237 -15.957  0.00  0.00    -0.084 Cl
ATOM     11  C   UNL     1     -11.969   2.081 -17.855  0.00  0.00    +0.014 A 
ENDBRANCH   3   5
BRANCH   1  12
ATOM     12  C   UNL     1     -12.742   5.955 -19.141  0.00  0.00    +0.089 C 
ATOM     13  C   UNL     1     -11.730   6.899 -19.747  0.00  0.00    +0.045 C 
ATOM     14  C   UNL     1     -12.564   6.048 -20.651  0.00  0.00    +0.045 C 
BRANCH  12  15
ATOM     15  N   UNL     1     -14.027   6.430 -18.549  0.00  0.00    -0.278 NA
ATOM     16  C   UNL     1     -14.842   5.327 -17.979  0.00  0.00    +0.114 C 
ATOM     17  C   UNL     1     -16.206   5.836 -17.485  0.00  0.00    +0.175 C 
ATOM     18  O   UNL     1     -16.057   6.851 -16.489  0.00  0.00    -0.377 OA
ATOM     19  C   UNL     1     -15.296   7.942 -17.016  0.00  0.00    +0.175 C 
ATOM     20  C   UNL     1     -13.915   7.474 -17.502  0.00  0.00    +0.114 C 
ENDBRANCH  12  15
ENDBRANCH   1  12
TORSDOF 3
ENDMDL
MODEL 6
REMARK VINA RESULT:      -6.2      3.931      5.856
REMARK  Name = min_compound967.pdb
REMARK  3 active torsions:
REMARK  status: ('A' for Active; 'I' for Inactive)
REMARK    1  A    between atoms: _1  and  _2
REMARK    2  A    between atoms: _1  and  _17
REMARK    3  A    between atoms: _8  and  _18
REMARK                            x       y       z     vdW  Elec       q    Type
REMARK                         _______ _______ _______ _____ _____    ______ ____
ROOT
ATOM      1  N   UNL     1     -13.162   3.866 -17.595  0.00  0.00    -0.293 N 
ATOM      2  H   UNL     1     -13.775   3.563 -18.339  0.00  0.00    +0.151 HD
ATOM      3  C   UNL     1     -12.307   4.925 -17.810  0.00  0.00    +0.245 C 
ATOM      4  O   UNL     1     -11.554   5.429 -16.985  0.00  0.00    -0.270 OA
ENDROOT
BRANCH   3   5
ATOM      5  C   UNL     1     -12.349   5.491 -19.178  0.00  0.00    +0.037 A 
ATOM      6  C   UNL     1     -13.088   4.867 -20.190  0.00  0.00    +0.014 A 
ATOM      7  C   UNL     1     -13.081   5.404 -21.481  0.00  0.00    +0.021 A 
ATOM      8  C   UNL     1     -12.347   6.560 -21.749  0.00  0.00    +0.041 A 
ATOM      9  C   UNL     1     -11.607   7.181 -20.743  0.00  0.00    +0.021 A 
ATOM     10 CL   UNL     1     -12.345   7.217 -23.339  0.00  0.00    -0.084 Cl
ATOM     11  C   UNL     1     -11.600   6.640 -19.456  0.00  0.00    +0.014 A 
ENDBRANCH   3   5
BRANCH   1  12
ATOM     12  C   UNL     1     -13.264   3.117 -16.376  0.00  0.00    +0.089 C 
ATOM     13  C   UNL     1     -13.785   3.724 -15.094  0.00  0.00    +0.045 C 
ATOM     14  C   UNL     1     -14.696   2.871 -15.919  0.00  0.00    +0.045 C 
BRANCH  12  15
ATOM     15  N   UNL     1     -12.316   1.964 -16.390  0.00  0.00    -0.278 NA
ATOM     16  C   UNL     1     -11.971   1.517 -17.763  0.00  0.00    +0.114 C 
ATOM     17  C   UNL     1     -11.089   0.258 -17.736  0.00  0.00    +0.175 C 
ATOM     18  O   UNL     1      -9.876   0.483 -17.014  0.00  0.00    -0.377 OA
ATOM     19  C   UNL     1     -10.174   0.892 -15.676  0.00  0.00    +0.175 C 
ATOM     20  C   UNL     1     -11.039   2.162 -15.662  0.00  0.00    +0.114 C 
ENDBRANCH  12  15
ENDBRANCH   1  12
TORSDOF 3
ENDMDL
MODEL 7
REMARK VINA RESULT:      -6.1      3.417      6.377
REMARK  Name = min_compound967.pdb
REMARK  3 active torsions:
REMARK  status: ('A' for Active; 'I' for Inactive)
REMARK    1  A    between atoms: _1  and  _2
REMARK    2  A    between atoms: _1  and  _17
REMARK    3  A    between atoms: _8  and  _18
REMARK                            x       y       z     vdW  Elec       q    Type
REMARK                         _______ _______ _______ _____ _____    ______ ____
ROOT
ATOM      1  N   UNL     1     -13.951   3.668 -14.982  0.00  0.00    -0.293 N 
ATOM      2  H   UNL     1     -13.024   3.939 -14.686  0.00  0.00    +0.151 HD
ATOM      3  C   UNL     1     -14.105   2.593 -15.831  0.00  0.00    +0.245 C 
ATOM      4  O   UNL     1     -15.166   2.124 -16.222  0.00  0.00    -0.270 OA
ENDROOT
BRANCH   3   5
ATOM      5  C   UNL     1     -12.839   1.963 -16.272  0.00  0.00    +0.037 A 
ATOM      6  C   UNL     1     -12.796   0.609 -16.624  0.00  0.00    +0.014 A 
ATOM      7  C   UNL     1     -11.581   0.032 -17.003  0.00  0.00    +0.021 A 
ATOM      8  C   UNL     1     -10.422   0.810 -17.037  0.00  0.00    +0.041 A 
ATOM      9  C   UNL     1     -10.462   2.158 -16.683  0.00  0.00    +0.021 A 
ATOM     10 CL   UNL     1      -8.930   0.095 -17.506  0.00  0.00    -0.084 Cl
ATOM     11  C   UNL     1     -11.672   2.735 -16.290  0.00  0.00    +0.014 A 
ENDBRANCH   3   5
BRANCH   1  12
ATOM     12  C   UNL     1     -15.018   4.474 -14.464  0.00  0.00    +0.089 C 
ATOM     13  C   UNL     1     -16.008   3.952 -13.449  0.00  0.00    +0.045 C 
ATOM     14  C   UNL     1     -14.877   4.814 -12.986  0.00  0.00    +0.045 C 
BRANCH  12  15
ATOM     15  N   UNL     1     -15.351   5.575 -15.416  0.00  0.00    -0.278 NA
ATOM     16  C   UNL     1     -14.309   5.773 -16.455  0.00  0.00    +0.114 C 
ATOM     17  C   UNL     1     -14.629   6.987 -17.343  0.00  0.00    +0.175 C 
ATOM     18  O   UNL     1     -15.895   6.845 -17.991  0.00  0.00    -0.377 OA
ATOM     19  C   UNL     1     -16.926   6.677 -17.013  0.00  0.00    +0.175 C 
ATOM     20  C   UNL     1     -16.651   5.458 -16.118  0.00  0.00    +0.114 C 
ENDBRANCH  12  15
ENDBRANCH   1  12
TORSDOF 3
ENDMDL
MODEL 8
REMARK VINA RESULT:      -6.0      4.236      7.017
REMARK  Name = min_compound967.pdb
REMARK  3 active torsions:
REMARK  status: ('A' for Active; 'I' for Inactive)
REMARK    1  A    between atoms: _1  and  _2
REMARK    2  A    between atoms: _1  and  _17
REMARK    3  A    between atoms: _8  and  _18
REMARK                            x       y       z     vdW  Elec       q    Type
REMARK                         _______ _______ _______ _____ _____    ______ ____
ROOT
ATOM      1  N   UNL     1     -14.607   5.872 -17.305  0.00  0.00    -0.293 N 
ATOM      2  H   UNL     1     -15.012   4.998 -17.001  0.00  0.00    +0.151 HD
ATOM      3  C   UNL     1     -13.235   6.009 -17.336  0.00  0.00    +0.245 C 
ATOM      4  O   UNL     1     -12.613   6.987 -17.732  0.00  0.00    -0.270 OA
ENDROOT
BRANCH   3   5
ATOM      5  C   UNL     1     -12.481   4.829 -16.854  0.00  0.00    +0.037 A 
ATOM      6  C   UNL     1     -11.082   4.810 -16.883  0.00  0.00    +0.014 A 
ATOM      7  C   UNL     1     -10.397   3.670 -16.455  0.00  0.00    +0.021 A 
ATOM      8  C   UNL     1     -11.111   2.563 -15.995  0.00  0.00    +0.041 A 
ATOM      9  C   UNL     1     -12.505   2.577 -15.968  0.00  0.00    +0.021 A 
ATOM     10 CL   UNL     1     -10.262   1.162 -15.467  0.00  0.00    -0.084 Cl
ATOM     11  C   UNL     1     -13.194   3.710 -16.409  0.00  0.00    +0.014 A 
ENDBRANCH   3   5
BRANCH   1  12
ATOM     12  C   UNL     1     -15.550   6.891 -17.665  0.00  0.00    +0.089 C 
ATOM     13  C   UNL     1     -15.538   7.562 -19.019  0.00  0.00    +0.045 C 
ATOM     14  C   UNL     1     -16.527   6.471 -18.756  0.00  0.00    +0.045 C 
BRANCH  12  15
ATOM     15  N   UNL     1     -16.093   7.558 -16.445  0.00  0.00    -0.278 NA
ATOM     16  C   UNL     1     -16.025   6.695 -15.238  0.00  0.00    +0.114 C 
ATOM     17  C   UNL     1     -16.697   7.368 -14.031  0.00  0.00    +0.175 C 
ATOM     18  O   UNL     1     -16.089   8.626 -13.725  0.00  0.00    -0.377 OA
ATOM     19  C   UNL     1     -16.161   9.491 -14.863  0.00  0.00    +0.175 C 
ATOM     20  C   UNL     1     -15.479   8.859 -16.086  0.00  0.00    +0.114 C 
ENDBRANCH  12  15
ENDBRANCH   1  12
TORSDOF 3
ENDMDL
MODEL 9
REMARK VINA RESULT:      -6.0      6.442      9.192
REMARK  Name = min_compound967.pdb
REMARK  3 active torsions:
REMARK  status: ('A' for Active; 'I' for Inactive)
REMARK    1  A    between atoms: _1  and  _2
REMARK    2  A    between atoms: _1  and  _17
REMARK    3  A    between atoms: _8  and  _18
REMARK                            x       y       z     vdW  Elec       q    Type
REMARK                         _______ _______ _______ _____ _____    ______ ____
ROOT
ATOM      1  N   UNL     1     -17.355   2.037  -8.867  0.00  0.00    -0.293 N 
ATOM      2  H   UNL     1     -17.240   1.351  -9.600  0.00  0.00    +0.151 HD
ATOM      3  C   UNL     1     -17.072   3.361  -9.125  0.00  0.00    +0.245 C 
ATOM      4  O   UNL     1     -17.219   4.299  -8.352  0.00  0.00    -0.270 OA
ENDROOT
BRANCH   3   5
ATOM      5  C   UNL     1     -16.562   3.632 -10.489  0.00  0.00    +0.037 A 
ATOM      6  C   UNL     1     -15.472   4.487 -10.691  0.00  0.00    +0.014 A 
ATOM      7  C   UNL     1     -15.034   4.753 -11.991  0.00  0.00    +0.021 A 
ATOM      8  C   UNL     1     -15.679   4.160 -13.077  0.00  0.00    +0.041 A 
ATOM      9  C   UNL     1     -16.768   3.311 -12.879  0.00  0.00    +0.021 A 
ATOM     10 CL   UNL     1     -15.135   4.490 -14.675  0.00  0.00    -0.084 Cl
ATOM     11  C   UNL     1     -17.218   3.054 -11.582  0.00  0.00    +0.014 A 
ENDBRANCH   3   5
BRANCH   1  12
ATOM     12  C   UNL     1     -17.806   1.516  -7.608  0.00  0.00    +0.089 C 
ATOM     13  C   UNL     1     -19.160   1.856  -7.030  0.00  0.00    +0.045 C 
ATOM     14  C   UNL     1     -18.973   0.544  -7.723  0.00  0.00    +0.045 C 
BRANCH  12  15
ATOM     15  N   UNL     1     -16.643   1.132  -6.755  0.00  0.00    -0.278 NA
ATOM     16  C   UNL     1     -15.398   0.924  -7.536  0.00  0.00    +0.114 C 
ATOM     17  C   UNL     1     -14.255   0.417  -6.641  0.00  0.00    +0.175 C 
ATOM     18  O   UNL     1     -13.976   1.330  -5.577  0.00  0.00    -0.377 OA
ATOM     19  C   UNL     1     -15.153   1.532  -4.789  0.00  0.00    +0.175 C 
ATOM     20  C   UNL     1     -16.313   2.060  -5.647  0.00  0.00    +0.114 C 
ENDBRANCH  12  15
ENDBRANCH   1  12
TORSDOF 3
ENDMDL
