MODEL 1
REMARK VINA RESULT:      -7.1      0.000      0.000
REMARK  Name = min_compound939.pdb
REMARK  4 active torsions:
REMARK  status: ('A' for Active; 'I' for Inactive)
REMARK    1  A    between atoms: _14  and  _15
REMARK    2  A    between atoms: _15  and  _18
REMARK    3  A    between atoms: _18  and  _19
REMARK    4  A    between atoms: _19  and  _20
REMARK                            x       y       z     vdW  Elec       q    Type
REMARK                         _______ _______ _______ _____ _____    ______ ____
ROOT
ATOM      1  C   UNL     1     -11.144  -0.813 -15.847  0.00  0.00    +0.005 C 
ATOM      2  C   UNL     1      -9.771  -0.208 -15.824  0.00  0.00    +0.005 C 
ATOM      3  C   UNL     1     -10.220   1.330 -15.456  0.00  0.00    +0.037 C 
ATOM      4  C   UNL     1     -11.109   1.904 -16.517  0.00  0.00    -0.023 A 
ATOM      5  C   UNL     1     -11.264   3.270 -16.907  0.00  0.00    +0.075 A 
ATOM      6  C   UNL     1     -10.592   4.456 -16.419  0.00  0.00    +0.260 A 
ATOM      7  O   UNL     1      -9.711   4.460 -15.568  0.00  0.00    -0.267 OA
ATOM      8  N   UNL     1     -11.029   5.618 -17.002  0.00  0.00    -0.301 N 
ATOM      9  H   UNL     1     -10.605   6.470 -16.668  0.00  0.00    +0.171 HD
ATOM     10  C   UNL     1     -12.016   5.651 -17.969  0.00  0.00    +0.220 A 
ATOM     11  N   UNL     1     -12.626   4.610 -18.452  0.00  0.00    -0.216 NA
ATOM     12  C   UNL     1     -12.222   3.433 -17.894  0.00  0.00    +0.116 A 
ATOM     13  S   UNL     1     -12.897   1.931 -18.364  0.00  0.00    -0.073 S 
ATOM     14  C   UNL     1     -11.936   1.082 -17.249  0.00  0.00    -0.004 A 
ATOM     15  C   UNL     1     -11.964  -0.402 -17.093  0.00  0.00    +0.043 C 
ENDROOT
BRANCH  10  16
ATOM     16  C   UNL     1     -12.359   7.058 -18.421  0.00  0.00    +0.375 C 
ATOM     17  O   UNL     1     -13.226   7.709 -17.868  0.00  0.00    -0.242 OA
BRANCH  16  18
ATOM     18  O   UNL     1     -11.444   7.477 -19.317  0.00  0.00    -0.459 OA
BRANCH  18  19
ATOM     19  C   UNL     1     -11.507   6.829 -20.597  0.00  0.00    +0.229 C 
ATOM     20  C   UNL     1     -11.103   7.776 -21.711  0.00  0.00    +0.048 C 
ENDBRANCH  18  19
ENDBRANCH  16  18
ENDBRANCH  10  16
TORSDOF 3
ENDMDL
MODEL 2
REMARK VINA RESULT:      -6.9      1.765      2.395
REMARK  Name = min_compound939.pdb
REMARK  4 active torsions:
REMARK  status: ('A' for Active; 'I' for Inactive)
REMARK    1  A    between atoms: _14  and  _15
REMARK    2  A    between atoms: _15  and  _18
REMARK    3  A    between atoms: _18  and  _19
REMARK    4  A    between atoms: _19  and  _20
REMARK                            x       y       z     vdW  Elec       q    Type
REMARK                         _______ _______ _______ _____ _____    ______ ____
ROOT
ATOM      1  C   UNL     1     -10.126  -0.471 -15.948  0.00  0.00    +0.005 C 
ATOM      2  C   UNL     1     -11.529  -0.799 -16.365  0.00  0.00    +0.005 C 
ATOM      3  C   UNL     1     -11.639   0.267 -17.610  0.00  0.00    +0.037 C 
ATOM      4  C   UNL     1     -11.472   1.678 -17.134  0.00  0.00    -0.023 A 
ATOM      5  C   UNL     1     -12.019   2.877 -17.685  0.00  0.00    +0.075 A 
ATOM      6  C   UNL     1     -12.901   3.058 -18.819  0.00  0.00    +0.260 A 
ATOM      7  O   UNL     1     -13.365   2.147 -19.496  0.00  0.00    -0.267 OA
ATOM      8  N   UNL     1     -13.192   4.370 -19.088  0.00  0.00    -0.301 N 
ATOM      9  H   UNL     1     -13.783   4.539 -19.889  0.00  0.00    +0.171 HD
ATOM     10  C   UNL     1     -12.693   5.421 -18.344  0.00  0.00    +0.220 A 
ATOM     11  N   UNL     1     -11.920   5.302 -17.306  0.00  0.00    -0.216 NA
ATOM     12  C   UNL     1     -11.604   4.010 -17.006  0.00  0.00    +0.116 A 
ATOM     13  S   UNL     1     -10.585   3.611 -15.688  0.00  0.00    -0.073 S 
ATOM     14  C   UNL     1     -10.686   1.950 -16.036  0.00  0.00    -0.004 A 
ATOM     15  C   UNL     1     -10.014   0.892 -15.225  0.00  0.00    +0.043 C 
ENDROOT
BRANCH  10  16
ATOM     16  C   UNL     1     -13.118   6.778 -18.870  0.00  0.00    +0.375 C 
ATOM     17  O   UNL     1     -13.536   7.646 -18.126  0.00  0.00    -0.242 OA
BRANCH  16  18
ATOM     18  O   UNL     1     -12.759   6.890 -20.165  0.00  0.00    -0.459 OA
BRANCH  18  19
ATOM     19  C   UNL     1     -11.389   7.256 -20.385  0.00  0.00    +0.229 C 
ATOM     20  C   UNL     1     -11.151   7.642 -21.832  0.00  0.00    +0.048 C 
ENDBRANCH  18  19
ENDBRANCH  16  18
ENDBRANCH  10  16
TORSDOF 3
ENDMDL
MODEL 3
REMARK VINA RESULT:      -6.9      1.081      1.945
REMARK  Name = min_compound939.pdb
REMARK  4 active torsions:
REMARK  status: ('A' for Active; 'I' for Inactive)
REMARK    1  A    between atoms: _14  and  _15
REMARK    2  A    between atoms: _15  and  _18
REMARK    3  A    between atoms: _18  and  _19
REMARK    4  A    between atoms: _19  and  _20
REMARK                            x       y       z     vdW  Elec       q    Type
REMARK                         _______ _______ _______ _____ _____    ______ ____
ROOT
ATOM      1  C   UNL     1     -11.014  -0.931 -15.910  0.00  0.00    +0.005 C 
ATOM      2  C   UNL     1      -9.665  -0.280 -15.830  0.00  0.00    +0.005 C 
ATOM      3  C   UNL     1     -10.177   1.229 -15.427  0.00  0.00    +0.037 C 
ATOM      4  C   UNL     1     -11.058   1.806 -16.493  0.00  0.00    -0.023 A 
ATOM      5  C   UNL     1     -11.251   3.177 -16.846  0.00  0.00    +0.075 A 
ATOM      6  C   UNL     1     -10.635   4.370 -16.302  0.00  0.00    +0.260 A 
ATOM      7  O   UNL     1      -9.777   4.377 -15.427  0.00  0.00    -0.267 OA
ATOM      8  N   UNL     1     -11.097   5.534 -16.860  0.00  0.00    -0.301 N 
ATOM      9  H   UNL     1     -10.711   6.389 -16.489  0.00  0.00    +0.171 HD
ATOM     10  C   UNL     1     -12.058   5.564 -17.852  0.00  0.00    +0.220 A 
ATOM     11  N   UNL     1     -12.618   4.519 -18.384  0.00  0.00    -0.216 NA
ATOM     12  C   UNL     1     -12.187   3.339 -17.853  0.00  0.00    +0.116 A 
ATOM     13  S   UNL     1     -12.796   1.831 -18.387  0.00  0.00    -0.073 S 
ATOM     14  C   UNL     1     -11.836   0.980 -17.274  0.00  0.00    -0.004 A 
ATOM     15  C   UNL     1     -11.815  -0.509 -17.165  0.00  0.00    +0.043 C 
ENDROOT
BRANCH  10  16
ATOM     16  C   UNL     1     -12.438   6.972 -18.270  0.00  0.00    +0.375 C 
ATOM     17  O   UNL     1     -11.612   7.747 -18.715  0.00  0.00    -0.242 OA
BRANCH  16  18
ATOM     18  O   UNL     1     -13.780   7.096 -18.261  0.00  0.00    -0.459 OA
BRANCH  18  19
ATOM     19  C   UNL     1     -14.360   7.333 -16.969  0.00  0.00    +0.229 C 
ATOM     20  C   UNL     1     -15.206   8.591 -16.970  0.00  0.00    +0.048 C 
ENDBRANCH  18  19
ENDBRANCH  16  18
ENDBRANCH  10  16
TORSDOF 3
ENDMDL
MODEL 4
REMARK VINA RESULT:      -6.8      2.100      3.168
REMARK  Name = min_compound939.pdb
REMARK  4 active torsions:
REMARK  status: ('A' for Active; 'I' for Inactive)
REMARK    1  A    between atoms: _14  and  _15
REMARK    2  A    between atoms: _15  and  _18
REMARK    3  A    between atoms: _18  and  _19
REMARK    4  A    between atoms: _19  and  _20
REMARK                            x       y       z     vdW  Elec       q    Type
REMARK                         _______ _______ _______ _____ _____    ______ ____
ROOT
ATOM      1  C   UNL     1     -10.112  -0.333 -16.124  0.00  0.00    +0.005 C 
ATOM      2  C   UNL     1     -11.500  -0.717 -16.544  0.00  0.00    +0.005 C 
ATOM      3  C   UNL     1     -11.667   0.374 -17.761  0.00  0.00    +0.037 C 
ATOM      4  C   UNL     1     -11.564   1.779 -17.250  0.00  0.00    -0.023 A 
ATOM      5  C   UNL     1     -12.171   2.964 -17.768  0.00  0.00    +0.075 A 
ATOM      6  C   UNL     1     -13.067   3.131 -18.893  0.00  0.00    +0.260 A 
ATOM      7  O   UNL     1     -13.490   2.216 -19.592  0.00  0.00    -0.267 OA
ATOM      8  N   UNL     1     -13.422   4.434 -19.129  0.00  0.00    -0.301 N 
ATOM      9  H   UNL     1     -14.024   4.595 -19.922  0.00  0.00    +0.171 HD
ATOM     10  C   UNL     1     -12.969   5.489 -18.359  0.00  0.00    +0.220 A 
ATOM     11  N   UNL     1     -12.186   5.381 -17.328  0.00  0.00    -0.216 NA
ATOM     12  C   UNL     1     -11.807   4.098 -17.063  0.00  0.00    +0.116 A 
ATOM     13  S   UNL     1     -10.763   3.715 -15.759  0.00  0.00    -0.073 S 
ATOM     14  C   UNL     1     -10.787   2.061 -16.148  0.00  0.00    -0.004 A 
ATOM     15  C   UNL     1     -10.061   1.016 -15.368  0.00  0.00    +0.043 C 
ENDROOT
BRANCH  10  16
ATOM     16  C   UNL     1     -13.461   6.837 -18.849  0.00  0.00    +0.375 C 
ATOM     17  O   UNL     1     -14.005   6.959 -19.931  0.00  0.00    -0.242 OA
BRANCH  16  18
ATOM     18  O   UNL     1     -13.386   7.734 -17.847  0.00  0.00    -0.459 OA
BRANCH  18  19
ATOM     19  C   UNL     1     -14.647   8.260 -17.407  0.00  0.00    +0.229 C 
ATOM     20  C   UNL     1     -14.939   7.860 -15.974  0.00  0.00    +0.048 C 
ENDBRANCH  18  19
ENDBRANCH  16  18
ENDBRANCH  10  16
TORSDOF 3
ENDMDL
MODEL 5
REMARK VINA RESULT:      -6.7      2.882      3.527
REMARK  Name = min_compound939.pdb
REMARK  4 active torsions:
REMARK  status: ('A' for Active; 'I' for Inactive)
REMARK    1  A    between atoms: _14  and  _15
REMARK    2  A    between atoms: _15  and  _18
REMARK    3  A    between atoms: _18  and  _19
REMARK    4  A    between atoms: _19  and  _20
REMARK                            x       y       z     vdW  Elec       q    Type
REMARK                         _______ _______ _______ _____ _____    ______ ____
ROOT
ATOM      1  C   UNL     1     -10.038  -0.666 -17.401  0.00  0.00    +0.005 C 
ATOM      2  C   UNL     1     -10.863  -1.041 -16.205  0.00  0.00    +0.005 C 
ATOM      3  C   UNL     1     -12.228  -0.226 -16.620  0.00  0.00    +0.037 C 
ATOM      4  C   UNL     1     -11.969   1.246 -16.730  0.00  0.00    -0.023 A 
ATOM      5  C   UNL     1     -12.872   2.330 -16.507  0.00  0.00    +0.075 A 
ATOM      6  C   UNL     1     -14.258   2.311 -16.088  0.00  0.00    +0.260 A 
ATOM      7  O   UNL     1     -14.891   1.298 -15.812  0.00  0.00    -0.267 OA
ATOM      8  N   UNL     1     -14.832   3.554 -16.018  0.00  0.00    -0.301 N 
ATOM      9  H   UNL     1     -15.806   3.581 -15.756  0.00  0.00    +0.171 HD
ATOM     10  C   UNL     1     -14.148   4.717 -16.316  0.00  0.00    +0.220 A 
ATOM     11  N   UNL     1     -12.899   4.781 -16.672  0.00  0.00    -0.216 NA
ATOM     12  C   UNL     1     -12.293   3.563 -16.756  0.00  0.00    +0.116 A 
ATOM     13  S   UNL     1     -10.653   3.400 -17.222  0.00  0.00    -0.073 S 
ATOM     14  C   UNL     1     -10.727   1.706 -17.109  0.00  0.00    -0.004 A 
ATOM     15  C   UNL     1      -9.564   0.807 -17.370  0.00  0.00    +0.043 C 
ENDROOT
BRANCH  10  16
ATOM     16  C   UNL     1     -15.012   5.959 -16.213  0.00  0.00    +0.375 C 
ATOM     17  O   UNL     1     -16.045   5.962 -15.569  0.00  0.00    -0.242 OA
BRANCH  16  18
ATOM     18  O   UNL     1     -14.352   7.011 -16.736  0.00  0.00    -0.459 OA
BRANCH  18  19
ATOM     19  C   UNL     1     -14.946   8.291 -16.476  0.00  0.00    +0.229 C 
ATOM     20  C   UNL     1     -15.588   8.861 -17.726  0.00  0.00    +0.048 C 
ENDBRANCH  18  19
ENDBRANCH  16  18
ENDBRANCH  10  16
TORSDOF 3
ENDMDL
MODEL 6
REMARK VINA RESULT:      -6.5      3.326      6.635
REMARK  Name = min_compound939.pdb
REMARK  4 active torsions:
REMARK  status: ('A' for Active; 'I' for Inactive)
REMARK    1  A    between atoms: _14  and  _15
REMARK    2  A    between atoms: _15  and  _18
REMARK    3  A    between atoms: _18  and  _19
REMARK    4  A    between atoms: _19  and  _20
REMARK                            x       y       z     vdW  Elec       q    Type
REMARK                         _______ _______ _______ _____ _____    ______ ____
ROOT
ATOM      1  C   UNL     1     -14.881   8.049 -16.659  0.00  0.00    +0.005 C 
ATOM      2  C   UNL     1     -16.131   7.223 -16.711  0.00  0.00    +0.005 C 
ATOM      3  C   UNL     1     -15.558   5.912 -15.903  0.00  0.00    +0.037 C 
ATOM      4  C   UNL     1     -14.401   5.292 -16.627  0.00  0.00    -0.023 A 
ATOM      5  C   UNL     1     -13.982   3.926 -16.635  0.00  0.00    +0.075 A 
ATOM      6  C   UNL     1     -14.567   2.773 -15.984  0.00  0.00    +0.260 A 
ATOM      7  O   UNL     1     -15.593   2.794 -15.314  0.00  0.00    -0.267 OA
ATOM      8  N   UNL     1     -13.864   1.612 -16.179  0.00  0.00    -0.301 N 
ATOM      9  H   UNL     1     -14.225   0.790 -15.718  0.00  0.00    +0.171 HD
ATOM     10  C   UNL     1     -12.708   1.549 -16.933  0.00  0.00    +0.220 A 
ATOM     11  N   UNL     1     -12.163   2.553 -17.553  0.00  0.00    -0.216 NA
ATOM     12  C   UNL     1     -12.832   3.729 -17.380  0.00  0.00    +0.116 A 
ATOM     13  S   UNL     1     -12.290   5.190 -18.092  0.00  0.00    -0.073 S 
ATOM     14  C   UNL     1     -13.566   6.072 -17.396  0.00  0.00    -0.004 A 
ATOM     15  C   UNL     1     -13.776   7.533 -17.612  0.00  0.00    +0.043 C 
ENDROOT
BRANCH  10  16
ATOM     16  C   UNL     1     -12.089   0.165 -16.958  0.00  0.00    +0.375 C 
ATOM     17  O   UNL     1     -12.637  -0.785 -16.432  0.00  0.00    -0.242 OA
BRANCH  16  18
ATOM     18  O   UNL     1     -11.031   0.161 -17.794  0.00  0.00    -0.459 OA
BRANCH  18  19
ATOM     19  C   UNL     1     -10.017  -0.807 -17.485  0.00  0.00    +0.229 C 
ATOM     20  C   UNL     1      -9.558  -0.680 -16.046  0.00  0.00    +0.048 C 
ENDBRANCH  18  19
ENDBRANCH  16  18
ENDBRANCH  10  16
TORSDOF 3
ENDMDL
MODEL 7
REMARK VINA RESULT:      -6.1     11.194     12.073
REMARK  Name = min_compound939.pdb
REMARK  4 active torsions:
REMARK  status: ('A' for Active; 'I' for Inactive)
REMARK    1  A    between atoms: _14  and  _15
REMARK    2  A    between atoms: _15  and  _18
REMARK    3  A    between atoms: _18  and  _19
REMARK    4  A    between atoms: _19  and  _20
REMARK                            x       y       z     vdW  Elec       q    Type
REMARK                         _______ _______ _______ _____ _____    ______ ____
ROOT
ATOM      1  C   UNL     1     -13.901   0.274  -3.475  0.00  0.00    +0.005 C 
ATOM      2  C   UNL     1     -13.651   1.753  -3.495  0.00  0.00    +0.005 C 
ATOM      3  C   UNL     1     -15.160   2.221  -3.946  0.00  0.00    +0.037 C 
ATOM      4  C   UNL     1     -15.525   1.658  -5.287  0.00  0.00    -0.023 A 
ATOM      5  C   UNL     1     -16.402   2.201  -6.274  0.00  0.00    +0.075 A 
ATOM      6  C   UNL     1     -17.146   3.444  -6.271  0.00  0.00    +0.260 A 
ATOM      7  O   UNL     1     -17.103   4.282  -5.377  0.00  0.00    -0.267 OA
ATOM      8  N   UNL     1     -17.929   3.622  -7.382  0.00  0.00    -0.301 N 
ATOM      9  H   UNL     1     -18.485   4.464  -7.404  0.00  0.00    +0.171 HD
ATOM     10  C   UNL     1     -17.997   2.703  -8.411  0.00  0.00    +0.220 A 
ATOM     11  N   UNL     1     -17.330   1.589  -8.465  0.00  0.00    -0.216 NA
ATOM     12  C   UNL     1     -16.540   1.373  -7.375  0.00  0.00    +0.116 A 
ATOM     13  S   UNL     1     -15.580  -0.037  -7.220  0.00  0.00    -0.073 S 
ATOM     14  C   UNL     1     -15.006   0.449  -5.696  0.00  0.00    -0.004 A 
ATOM     15  C   UNL     1     -14.025  -0.337  -4.891  0.00  0.00    +0.043 C 
ENDROOT
BRANCH  10  16
ATOM     16  C   UNL     1     -18.971   3.103  -9.503  0.00  0.00    +0.375 C 
ATOM     17  O   UNL     1     -20.126   2.720  -9.495  0.00  0.00    -0.242 OA
BRANCH  16  18
ATOM     18  O   UNL     1     -18.412   4.056 -10.276  0.00  0.00    -0.459 OA
BRANCH  18  19
ATOM     19  C   UNL     1     -18.391   3.763 -11.681  0.00  0.00    +0.229 C 
ATOM     20  C   UNL     1     -17.105   3.065 -12.076  0.00  0.00    +0.048 C 
ENDBRANCH  18  19
ENDBRANCH  16  18
ENDBRANCH  10  16
TORSDOF 3
ENDMDL
MODEL 8
REMARK VINA RESULT:      -6.0      2.920      6.494
REMARK  Name = min_compound939.pdb
REMARK  4 active torsions:
REMARK  status: ('A' for Active; 'I' for Inactive)
REMARK    1  A    between atoms: _14  and  _15
REMARK    2  A    between atoms: _15  and  _18
REMARK    3  A    between atoms: _18  and  _19
REMARK    4  A    between atoms: _19  and  _20
REMARK                            x       y       z     vdW  Elec       q    Type
REMARK                         _______ _______ _______ _____ _____    ______ ____
ROOT
ATOM      1  C   UNL     1     -16.704   7.984 -16.580  0.00  0.00    +0.005 C 
ATOM      2  C   UNL     1     -15.412   8.721 -16.389  0.00  0.00    +0.005 C 
ATOM      3  C   UNL     1     -14.466   7.737 -17.305  0.00  0.00    +0.037 C 
ATOM      4  C   UNL     1     -14.445   6.342 -16.758  0.00  0.00    -0.023 A 
ATOM      5  C   UNL     1     -13.407   5.364 -16.847  0.00  0.00    +0.075 A 
ATOM      6  C   UNL     1     -12.094   5.458 -17.450  0.00  0.00    +0.260 A 
ATOM      7  O   UNL     1     -11.637   6.466 -17.978  0.00  0.00    -0.267 OA
ATOM      8  N   UNL     1     -11.371   4.295 -17.384  0.00  0.00    -0.301 N 
ATOM      9  H   UNL     1     -10.460   4.312 -17.818  0.00  0.00    +0.171 HD
ATOM     10  C   UNL     1     -11.850   3.142 -16.792  0.00  0.00    +0.220 A 
ATOM     11  N   UNL     1     -13.010   3.022 -16.218  0.00  0.00    -0.216 NA
ATOM     12  C   UNL     1     -13.762   4.159 -16.266  0.00  0.00    +0.116 A 
ATOM     13  S   UNL     1     -15.334   4.232 -15.588  0.00  0.00    -0.073 S 
ATOM     14  C   UNL     1     -15.537   5.845 -16.082  0.00  0.00    -0.004 A 
ATOM     15  C   UNL     1     -16.761   6.651 -15.797  0.00  0.00    +0.043 C 
ENDROOT
BRANCH  10  16
ATOM     16  C   UNL     1     -10.885   1.977 -16.890  0.00  0.00    +0.375 C 
ATOM     17  O   UNL     1      -9.851   2.061 -17.527  0.00  0.00    -0.242 OA
BRANCH  16  18
ATOM     18  O   UNL     1     -11.258   1.010 -16.028  0.00  0.00    -0.459 OA
BRANCH  18  19
ATOM     19  C   UNL     1     -11.040  -0.332 -16.489  0.00  0.00    +0.229 C 
ATOM     20  C   UNL     1      -9.820  -0.946 -15.831  0.00  0.00    +0.048 C 
ENDBRANCH  18  19
ENDBRANCH  16  18
ENDBRANCH  10  16
TORSDOF 3
ENDMDL
MODEL 9
REMARK VINA RESULT:      -5.9     13.227     15.681
REMARK  Name = min_compound939.pdb
REMARK  4 active torsions:
REMARK  status: ('A' for Active; 'I' for Inactive)
REMARK    1  A    between atoms: _14  and  _15
REMARK    2  A    between atoms: _15  and  _18
REMARK    3  A    between atoms: _18  and  _19
REMARK    4  A    between atoms: _19  and  _20
REMARK                            x       y       z     vdW  Elec       q    Type
REMARK                         _______ _______ _______ _____ _____    ______ ____
ROOT
ATOM      1  C   UNL     1     -17.572   2.986  -7.971  0.00  0.00    +0.005 C 
ATOM      2  C   UNL     1     -16.278   2.462  -8.520  0.00  0.00    +0.005 C 
ATOM      3  C   UNL     1     -16.332   0.976  -7.821  0.00  0.00    +0.037 C 
ATOM      4  C   UNL     1     -16.349   1.080  -6.326  0.00  0.00    -0.023 A 
ATOM      5  C   UNL     1     -15.847   0.153  -5.361  0.00  0.00    +0.075 A 
ATOM      6  C   UNL     1     -15.164  -1.109  -5.556  0.00  0.00    +0.260 A 
ATOM      7  O   UNL     1     -14.867  -1.582  -6.647  0.00  0.00    -0.267 OA
ATOM      8  N   UNL     1     -14.861  -1.759  -4.388  0.00  0.00    -0.301 N 
ATOM      9  H   UNL     1     -14.409  -2.657  -4.482  0.00  0.00    +0.171 HD
ATOM     10  C   UNL     1     -15.175  -1.254  -3.141  0.00  0.00    +0.220 A 
ATOM     11  N   UNL     1     -15.765  -0.117  -2.921  0.00  0.00    -0.216 NA
ATOM     12  C   UNL     1     -16.086   0.560  -4.060  0.00  0.00    +0.116 A 
ATOM     13  S   UNL     1     -16.882   2.076  -4.016  0.00  0.00    -0.073 S 
ATOM     14  C   UNL     1     -16.921   2.173  -5.713  0.00  0.00    -0.004 A 
ATOM     15  C   UNL     1     -17.494   3.328  -6.464  0.00  0.00    +0.043 C 
ENDROOT
BRANCH  10  16
ATOM     16  C   UNL     1     -14.783  -2.181  -2.007  0.00  0.00    +0.375 C 
ATOM     17  O   UNL     1     -15.164  -1.988  -0.867  0.00  0.00    -0.242 OA
BRANCH  16  18
ATOM     18  O   UNL     1     -14.178  -3.276  -2.510  0.00  0.00    -0.459 OA
BRANCH  18  19
ATOM     19  C   UNL     1     -13.545  -4.121  -1.538  0.00  0.00    +0.229 C 
ATOM     20  C   UNL     1     -13.594  -5.576  -1.962  0.00  0.00    +0.048 C 
ENDBRANCH  18  19
ENDBRANCH  16  18
ENDBRANCH  10  16
TORSDOF 3
ENDMDL
