MODEL 1
REMARK VINA RESULT:      -6.2      0.000      0.000
REMARK  Name = min_compound91.pdb
REMARK  2 active torsions:
REMARK  status: ('A' for Active; 'I' for Inactive)
REMARK    1  A    between atoms: _6  and  _8
REMARK    2  A    between atoms: _7  and  _14
REMARK                            x       y       z     vdW  Elec       q    Type
REMARK                         _______ _______ _______ _____ _____    ______ ____
ROOT
ATOM      1  H   UNL     1     -14.709   4.817 -17.477  0.00  0.00    +0.211 HD
ATOM      2  N   UNL     1     -14.389   3.860 -17.527  0.00  0.00    -0.182 N 
ATOM      3  C   UNL     1     -13.487   3.386 -16.610  0.00  0.00    +0.285 A 
ATOM      4  C   UNL     1     -12.752   2.278 -17.230  0.00  0.00    +0.082 A 
ATOM      5  C   UNL     1     -13.154   2.337 -18.506  0.00  0.00    +0.220 A 
ATOM      6  O   UNL     1     -13.325   3.843 -15.493  0.00  0.00    -0.265 OA
ATOM      7  O   UNL     1     -14.112   3.299 -18.791  0.00  0.00    -0.362 OA
ENDROOT
BRANCH   4   8
ATOM      8  C   UNL     1     -11.721   1.379 -16.586  0.00  0.00    +0.029 C 
ATOM      9  C   UNL     1     -10.294   1.816 -16.736  0.00  0.00    +0.008 C 
ATOM     10  C   UNL     1      -9.722   0.475 -17.432  0.00  0.00    +0.001 C 
ATOM     11  C   UNL     1      -9.501  -0.616 -16.283  0.00  0.00    +0.000 C 
ATOM     12  C   UNL     1     -10.928  -1.053 -16.132  0.00  0.00    +0.001 C 
ATOM     13  C   UNL     1     -12.041  -0.137 -16.671  0.00  0.00    +0.008 C 
ENDBRANCH   4   8
BRANCH   5  14
ATOM     14  N   UNL     1     -12.758   1.554 -19.556  0.00  0.00    -0.327 N 
ATOM     15  H   UNL     1     -12.439   2.074 -20.368  0.00  0.00    +0.145 HD
ATOM     16  H   UNL     1     -12.096   0.840 -19.260  0.00  0.00    +0.145 HD
ENDBRANCH   5  14
TORSDOF 2
ENDMDL
MODEL 2
REMARK VINA RESULT:      -6.0      1.091      2.111
REMARK  Name = min_compound91.pdb
REMARK  2 active torsions:
REMARK  status: ('A' for Active; 'I' for Inactive)
REMARK    1  A    between atoms: _6  and  _8
REMARK    2  A    between atoms: _7  and  _14
REMARK                            x       y       z     vdW  Elec       q    Type
REMARK                         _______ _______ _______ _____ _____    ______ ____
ROOT
ATOM      1  H   UNL     1     -14.795   3.491 -19.364  0.00  0.00    +0.211 HD
ATOM      2  N   UNL     1     -14.112   3.489 -18.620  0.00  0.00    -0.182 N 
ATOM      3  C   UNL     1     -13.210   2.462 -18.516  0.00  0.00    +0.285 A 
ATOM      4  C   UNL     1     -12.798   2.362 -17.112  0.00  0.00    +0.082 A 
ATOM      5  C   UNL     1     -13.638   3.207 -16.498  0.00  0.00    +0.220 A 
ATOM      6  O   UNL     1     -12.854   1.752 -19.439  0.00  0.00    -0.265 OA
ATOM      7  O   UNL     1     -14.506   3.901 -17.331  0.00  0.00    -0.362 OA
ENDROOT
BRANCH   4   8
ATOM      8  C   UNL     1     -11.753   1.445 -16.518  0.00  0.00    +0.029 C 
ATOM      9  C   UNL     1     -10.333   1.911 -16.646  0.00  0.00    +0.008 C 
ATOM     10  C   UNL     1      -9.742   0.618 -17.414  0.00  0.00    +0.001 C 
ATOM     11  C   UNL     1      -9.503  -0.530 -16.325  0.00  0.00    +0.000 C 
ATOM     12  C   UNL     1     -10.923  -0.996 -16.197  0.00  0.00    +0.001 C 
ATOM     13  C   UNL     1     -12.051  -0.068 -16.685  0.00  0.00    +0.008 C 
ENDBRANCH   4   8
BRANCH   5  14
ATOM     14  N   UNL     1     -13.732   3.488 -15.163  0.00  0.00    -0.327 N 
ATOM     15  H   UNL     1     -14.225   4.350 -14.952  0.00  0.00    +0.145 HD
ATOM     16  H   UNL     1     -14.086   2.692 -14.638  0.00  0.00    +0.145 HD
ENDBRANCH   5  14
TORSDOF 2
ENDMDL
MODEL 3
REMARK VINA RESULT:      -5.6      1.969      2.485
REMARK  Name = min_compound91.pdb
REMARK  2 active torsions:
REMARK  status: ('A' for Active; 'I' for Inactive)
REMARK    1  A    between atoms: _6  and  _8
REMARK    2  A    between atoms: _7  and  _14
REMARK                            x       y       z     vdW  Elec       q    Type
REMARK                         _______ _______ _______ _____ _____    ______ ____
ROOT
ATOM      1  H   UNL     1     -13.530   6.194 -17.858  0.00  0.00    +0.211 HD
ATOM      2  N   UNL     1     -13.345   5.581 -17.077  0.00  0.00    -0.182 N 
ATOM      3  C   UNL     1     -12.500   4.512 -17.225  0.00  0.00    +0.285 A 
ATOM      4  C   UNL     1     -12.875   3.498 -16.234  0.00  0.00    +0.082 A 
ATOM      5  C   UNL     1     -14.019   3.984 -15.734  0.00  0.00    +0.220 A 
ATOM      6  O   UNL     1     -11.618   4.432 -18.062  0.00  0.00    -0.265 OA
ATOM      7  O   UNL     1     -14.408   5.224 -16.223  0.00  0.00    -0.362 OA
ENDROOT
BRANCH   4   8
ATOM      8  C   UNL     1     -12.180   2.186 -15.945  0.00  0.00    +0.029 C 
ATOM      9  C   UNL     1     -10.749   2.292 -15.510  0.00  0.00    +0.008 C 
ATOM     10  C   UNL     1     -10.098   1.358 -16.655  0.00  0.00    +0.001 C 
ATOM     11  C   UNL     1     -10.345  -0.168 -16.240  0.00  0.00    +0.000 C 
ATOM     12  C   UNL     1     -11.776  -0.274 -16.676  0.00  0.00    +0.001 C 
ATOM     13  C   UNL     1     -12.580   1.022 -16.889  0.00  0.00    +0.008 C 
ENDBRANCH   4   8
BRANCH   5  14
ATOM     14  N   UNL     1     -14.836   3.427 -14.789  0.00  0.00    -0.327 N 
ATOM     15  H   UNL     1     -15.048   4.039 -14.008  0.00  0.00    +0.145 HD
ATOM     16  H   UNL     1     -15.669   3.021 -15.209  0.00  0.00    +0.145 HD
ENDBRANCH   5  14
TORSDOF 2
ENDMDL
MODEL 4
REMARK VINA RESULT:      -5.6     11.327     12.123
REMARK  Name = min_compound91.pdb
REMARK  2 active torsions:
REMARK  status: ('A' for Active; 'I' for Inactive)
REMARK    1  A    between atoms: _6  and  _8
REMARK    2  A    between atoms: _7  and  _14
REMARK                            x       y       z     vdW  Elec       q    Type
REMARK                         _______ _______ _______ _____ _____    ______ ____
ROOT
ATOM      1  H   UNL     1     -17.637   0.944  -9.371  0.00  0.00    +0.211 HD
ATOM      2  N   UNL     1     -17.440   0.944  -8.380  0.00  0.00    -0.182 N 
ATOM      3  C   UNL     1     -16.266   1.475  -7.913  0.00  0.00    +0.285 A 
ATOM      4  C   UNL     1     -15.953   0.825  -6.635  0.00  0.00    +0.082 A 
ATOM      5  C   UNL     1     -16.864  -0.156  -6.574  0.00  0.00    +0.220 A 
ATOM      6  O   UNL     1     -15.604   2.318  -8.490  0.00  0.00    -0.265 OA
ATOM      7  O   UNL     1     -17.779  -0.191  -7.616  0.00  0.00    -0.362 OA
ENDROOT
BRANCH   4   8
ATOM      8  C   UNL     1     -14.812   1.138  -5.694  0.00  0.00    +0.029 C 
ATOM      9  C   UNL     1     -13.894  -0.006  -5.384  0.00  0.00    +0.008 C 
ATOM     10  C   UNL     1     -14.045   0.015  -3.776  0.00  0.00    +0.001 C 
ATOM     11  C   UNL     1     -13.125   1.198  -3.214  0.00  0.00    +0.000 C 
ATOM     12  C   UNL     1     -14.043   2.343  -3.524  0.00  0.00    +0.001 C 
ATOM     13  C   UNL     1     -15.168   2.129  -4.554  0.00  0.00    +0.008 C 
ENDBRANCH   4   8
BRANCH   5  14
ATOM     14  N   UNL     1     -17.019  -1.109  -5.605  0.00  0.00    -0.327 N 
ATOM     15  H   UNL     1     -16.174  -1.631  -5.394  0.00  0.00    +0.145 HD
ATOM     16  H   UNL     1     -17.463  -0.727  -4.774  0.00  0.00    +0.145 HD
ENDBRANCH   5  14
TORSDOF 2
ENDMDL
MODEL 5
REMARK VINA RESULT:      -5.6      1.810      2.174
REMARK  Name = min_compound91.pdb
REMARK  2 active torsions:
REMARK  status: ('A' for Active; 'I' for Inactive)
REMARK    1  A    between atoms: _6  and  _8
REMARK    2  A    between atoms: _7  and  _14
REMARK                            x       y       z     vdW  Elec       q    Type
REMARK                         _______ _______ _______ _____ _____    ______ ____
ROOT
ATOM      1  H   UNL     1     -15.005   4.950 -15.790  0.00  0.00    +0.211 HD
ATOM      2  N   UNL     1     -14.325   4.551 -16.422  0.00  0.00    -0.182 N 
ATOM      3  C   UNL     1     -13.813   3.302 -16.184  0.00  0.00    +0.285 A 
ATOM      4  C   UNL     1     -12.490   3.228 -16.815  0.00  0.00    +0.082 A 
ATOM      5  C   UNL     1     -12.273   4.496 -17.191  0.00  0.00    +0.220 A 
ATOM      6  O   UNL     1     -14.367   2.434 -15.535  0.00  0.00    -0.265 OA
ATOM      7  O   UNL     1     -13.315   5.381 -16.949  0.00  0.00    -0.362 OA
ENDROOT
BRANCH   4   8
ATOM      8  C   UNL     1     -11.576   2.028 -16.907  0.00  0.00    +0.029 C 
ATOM      9  C   UNL     1     -12.061   0.907 -17.778  0.00  0.00    +0.008 C 
ATOM     10  C   UNL     1     -12.021  -0.269 -16.671  0.00  0.00    +0.001 C 
ATOM     11  C   UNL     1     -10.501  -0.746 -16.520  0.00  0.00    +0.000 C 
ATOM     12  C   UNL     1     -10.016   0.374 -15.649  0.00  0.00    +0.001 C 
ATOM     13  C   UNL     1     -10.842   1.672 -15.587  0.00  0.00    +0.008 C 
ENDBRANCH   4   8
BRANCH   5  14
ATOM     14  N   UNL     1     -11.168   5.021 -17.804  0.00  0.00    -0.327 N 
ATOM     15  H   UNL     1     -10.288   4.758 -17.373  0.00  0.00    +0.145 HD
ATOM     16  H   UNL     1     -11.182   4.851 -18.807  0.00  0.00    +0.145 HD
ENDBRANCH   5  14
TORSDOF 2
ENDMDL
MODEL 6
REMARK VINA RESULT:      -5.5     11.293     12.075
REMARK  Name = min_compound91.pdb
REMARK  2 active torsions:
REMARK  status: ('A' for Active; 'I' for Inactive)
REMARK    1  A    between atoms: _6  and  _8
REMARK    2  A    between atoms: _7  and  _14
REMARK                            x       y       z     vdW  Elec       q    Type
REMARK                         _______ _______ _______ _____ _____    ______ ____
ROOT
ATOM      1  H   UNL     1     -18.811  -0.264  -7.580  0.00  0.00    +0.211 HD
ATOM      2  N   UNL     1     -17.828  -0.036  -7.616  0.00  0.00    -0.182 N 
ATOM      3  C   UNL     1     -17.081  -0.022  -6.467  0.00  0.00    +0.285 A 
ATOM      4  C   UNL     1     -15.952   0.892  -6.672  0.00  0.00    +0.082 A 
ATOM      5  C   UNL     1     -16.251   1.471  -7.842  0.00  0.00    +0.220 A 
ATOM      6  O   UNL     1     -17.348  -0.646  -5.456  0.00  0.00    -0.265 OA
ATOM      7  O   UNL     1     -17.400   1.005  -8.466  0.00  0.00    -0.362 OA
ENDROOT
BRANCH   4   8
ATOM      8  C   UNL     1     -14.804   1.169  -5.727  0.00  0.00    +0.029 C 
ATOM      9  C   UNL     1     -13.945  -0.013  -5.385  0.00  0.00    +0.008 C 
ATOM     10  C   UNL     1     -14.108   0.050  -3.780  0.00  0.00    +0.001 C 
ATOM     11  C   UNL     1     -13.135   1.198  -3.234  0.00  0.00    +0.000 C 
ATOM     12  C   UNL     1     -13.994   2.380  -3.576  0.00  0.00    +0.001 C 
ATOM     13  C   UNL     1     -15.119   2.199  -4.611  0.00  0.00    +0.008 C 
ENDBRANCH   4   8
BRANCH   5  14
ATOM     14  N   UNL     1     -15.557   2.444  -8.509  0.00  0.00    -0.327 N 
ATOM     15  H   UNL     1     -16.092   2.919  -9.228  0.00  0.00    +0.145 HD
ATOM     16  H   UNL     1     -15.104   3.087  -7.864  0.00  0.00    +0.145 HD
ENDBRANCH   5  14
TORSDOF 2
ENDMDL
MODEL 7
REMARK VINA RESULT:      -5.4     14.302     15.248
REMARK  Name = min_compound91.pdb
REMARK  2 active torsions:
REMARK  status: ('A' for Active; 'I' for Inactive)
REMARK    1  A    between atoms: _6  and  _8
REMARK    2  A    between atoms: _7  and  _14
REMARK                            x       y       z     vdW  Elec       q    Type
REMARK                         _______ _______ _______ _____ _____    ______ ____
ROOT
ATOM      1  H   UNL     1     -17.542  -2.212  -0.413  0.00  0.00    +0.211 HD
ATOM      2  N   UNL     1     -16.637  -1.843  -0.668  0.00  0.00    -0.182 N 
ATOM      3  C   UNL     1     -16.472  -1.185  -1.859  0.00  0.00    +0.285 A 
ATOM      4  C   UNL     1     -15.064  -1.313  -2.255  0.00  0.00    +0.082 A 
ATOM      5  C   UNL     1     -14.587  -2.192  -1.363  0.00  0.00    +0.220 A 
ATOM      6  O   UNL     1     -17.361  -0.626  -2.475  0.00  0.00    -0.265 OA
ATOM      7  O   UNL     1     -15.485  -2.607  -0.390  0.00  0.00    -0.362 OA
ENDROOT
BRANCH   4   8
ATOM      8  C   UNL     1     -14.378  -0.680  -3.444  0.00  0.00    +0.029 C 
ATOM      9  C   UNL     1     -14.144   0.798  -3.347  0.00  0.00    +0.008 C 
ATOM     10  C   UNL     1     -14.919   1.236  -4.695  0.00  0.00    +0.001 C 
ATOM     11  C   UNL     1     -13.951   0.938  -5.934  0.00  0.00    +0.000 C 
ATOM     12  C   UNL     1     -14.186  -0.541  -6.031  0.00  0.00    +0.001 C 
ATOM     13  C   UNL     1     -14.786  -1.274  -4.818  0.00  0.00    +0.008 C 
ENDBRANCH   4   8
BRANCH   5  14
ATOM     14  N   UNL     1     -13.325  -2.712  -1.278  0.00  0.00    -0.327 N 
ATOM     15  H   UNL     1     -12.658  -2.297  -1.922  0.00  0.00    +0.145 HD
ATOM     16  H   UNL     1     -12.990  -2.723  -0.318  0.00  0.00    +0.145 HD
ENDBRANCH   5  14
TORSDOF 2
ENDMDL
MODEL 8
REMARK VINA RESULT:      -5.3     13.077     13.869
REMARK  Name = min_compound91.pdb
REMARK  2 active torsions:
REMARK  status: ('A' for Active; 'I' for Inactive)
REMARK    1  A    between atoms: _6  and  _8
REMARK    2  A    between atoms: _7  and  _14
REMARK                            x       y       z     vdW  Elec       q    Type
REMARK                         _______ _______ _______ _____ _____    ______ ____
ROOT
ATOM      1  H   UNL     1     -19.067  -2.428  -3.660  0.00  0.00    +0.211 HD
ATOM      2  N   UNL     1     -18.322  -2.081  -4.247  0.00  0.00    -0.182 N 
ATOM      3  C   UNL     1     -17.329  -1.302  -3.712  0.00  0.00    +0.285 A 
ATOM      4  C   UNL     1     -16.785  -0.462  -4.785  0.00  0.00    +0.082 A 
ATOM      5  C   UNL     1     -17.638  -0.686  -5.794  0.00  0.00    +0.220 A 
ATOM      6  O   UNL     1     -16.996  -1.306  -2.541  0.00  0.00    -0.265 OA
ATOM      7  O   UNL     1     -18.633  -1.620  -5.543  0.00  0.00    -0.362 OA
ENDROOT
BRANCH   4   8
ATOM      8  C   UNL     1     -15.615   0.493  -4.709  0.00  0.00    +0.029 C 
ATOM      9  C   UNL     1     -14.266  -0.145  -4.562  0.00  0.00    +0.008 C 
ATOM     10  C   UNL     1     -13.813   0.601  -3.203  0.00  0.00    +0.001 C 
ATOM     11  C   UNL     1     -13.322   2.074  -3.595  0.00  0.00    +0.000 C 
ATOM     12  C   UNL     1     -14.671   2.712  -3.742  0.00  0.00    +0.001 C 
ATOM     13  C   UNL     1     -15.901   1.804  -3.929  0.00  0.00    +0.008 C 
ENDBRANCH   4   8
BRANCH   5  14
ATOM     14  N   UNL     1     -17.636  -0.131  -7.045  0.00  0.00    -0.327 N 
ATOM     15  H   UNL     1     -17.262   0.812  -7.082  0.00  0.00    +0.145 HD
ATOM     16  H   UNL     1     -17.209  -0.752  -7.728  0.00  0.00    +0.145 HD
ENDBRANCH   5  14
TORSDOF 2
ENDMDL
MODEL 9
REMARK VINA RESULT:      -5.0     13.974     14.952
REMARK  Name = min_compound91.pdb
REMARK  2 active torsions:
REMARK  status: ('A' for Active; 'I' for Inactive)
REMARK    1  A    between atoms: _6  and  _8
REMARK    2  A    between atoms: _7  and  _14
REMARK                            x       y       z     vdW  Elec       q    Type
REMARK                         _______ _______ _______ _____ _____    ______ ____
ROOT
ATOM      1  H   UNL     1     -15.557  -2.717   0.182  0.00  0.00    +0.211 HD
ATOM      2  N   UNL     1     -15.734  -2.441  -0.773  0.00  0.00    -0.182 N 
ATOM      3  C   UNL     1     -14.699  -2.041  -1.578  0.00  0.00    +0.285 A 
ATOM      4  C   UNL     1     -15.245  -1.151  -2.609  0.00  0.00    +0.082 A 
ATOM      5  C   UNL     1     -16.505  -0.960  -2.194  0.00  0.00    +0.220 A 
ATOM      6  O   UNL     1     -13.534  -2.361  -1.425  0.00  0.00    -0.265 OA
ATOM      7  O   UNL     1     -16.877  -1.666  -1.059  0.00  0.00    -0.362 OA
ENDROOT
BRANCH   4   8
ATOM      8  C   UNL     1     -14.513  -0.532  -3.778  0.00  0.00    +0.029 C 
ATOM      9  C   UNL     1     -14.245   0.940  -3.670  0.00  0.00    +0.008 C 
ATOM     10  C   UNL     1     -14.975   1.400  -5.036  0.00  0.00    +0.001 C 
ATOM     11  C   UNL     1     -13.983   1.081  -6.251  0.00  0.00    +0.000 C 
ATOM     12  C   UNL     1     -14.251  -0.391  -6.359  0.00  0.00    +0.001 C 
ATOM     13  C   UNL     1     -14.900  -1.112  -5.164  0.00  0.00    +0.008 C 
ENDBRANCH   4   8
BRANCH   5  14
ATOM     14  N   UNL     1     -17.474  -0.178  -2.761  0.00  0.00    -0.327 N 
ATOM     15  H   UNL     1     -18.291  -0.691  -3.079  0.00  0.00    +0.145 HD
ATOM     16  H   UNL     1     -17.712   0.611  -2.165  0.00  0.00    +0.145 HD
ENDBRANCH   5  14
TORSDOF 2
ENDMDL
