MODEL 1
REMARK VINA RESULT:      -7.8      0.000      0.000
REMARK  Name = min_compound995.pdb
REMARK  5 active torsions:
REMARK  status: ('A' for Active; 'I' for Inactive)
REMARK    1  A    between atoms: _6  and  _24
REMARK    2  A    between atoms: _8  and  _9
REMARK    3  A    between atoms: _12  and  _25
REMARK    4  A    between atoms: _15  and  _22
REMARK    5  A    between atoms: _19  and  _23
REMARK                            x       y       z     vdW  Elec       q    Type
REMARK                         _______ _______ _______ _____ _____    ______ ____
ROOT
ATOM      1  O   UNL     1     -14.753   4.547 -15.465  0.00  0.00    -0.483 OA
ATOM      2  C   UNL     1     -13.970   3.815 -16.326  0.00  0.00    +0.231 C 
ATOM      3  C   UNL     1     -13.798   2.478 -15.938  0.00  0.00    +0.071 C 
ATOM      4  C   UNL     1     -13.143   1.603 -16.782  0.00  0.00    +0.158 C 
ATOM      5  C   UNL     1     -12.691   2.039 -18.018  0.00  0.00    +0.158 C 
ATOM      6  C   UNL     1     -12.861   3.368 -18.406  0.00  0.00    +0.057 C 
ATOM      7  C   UNL     1     -13.447   4.310 -17.535  0.00  0.00    +0.009 C 
ATOM      8  C   UNL     1     -13.705   5.763 -17.864  0.00  0.00    +0.003 C 
ATOM      9  C   UNL     1     -14.442   6.561 -16.824  0.00  0.00    +0.025 C 
ATOM     10  C   UNL     1     -14.534   7.957 -16.800  0.00  0.00    +0.060 C 
ATOM     11  C   UNL     1     -15.234   8.597 -15.775  0.00  0.00    +0.160 C 
ATOM     12  C   UNL     1     -15.847   7.947 -14.691  0.00  0.00    +0.204 C 
ATOM     13  C   UNL     1     -15.654   6.561 -14.690  0.00  0.00    +0.157 C 
ATOM     14  O   UNL     1     -16.487   8.581 -13.783  0.00  0.00    -0.288 OA
ATOM     15  C   UNL     1     -14.947   5.886 -15.708  0.00  0.00    +0.114 C 
ENDROOT
BRANCH   8  16
ATOM     16  C   UNL     1     -13.278   6.324 -19.037  0.00  0.00    +0.025 A 
ATOM     17  C   UNL     1     -14.120   6.211 -20.255  0.00  0.00    +0.012 A 
ATOM     18  C   UNL     1     -13.625   6.588 -21.568  0.00  0.00    +0.001 A 
ATOM     19  C   UNL     1     -12.384   7.085 -21.681  0.00  0.00    +0.004 A 
ATOM     20  C   UNL     1     -11.565   7.318 -20.508  0.00  0.00    +0.046 A 
ATOM     21  C   UNL     1     -11.956   6.971 -19.269  0.00  0.00    +0.125 A 
BRANCH  21  22
ATOM     22  O   UNL     1     -11.204   7.415 -18.198  0.00  0.00    -0.506 OA
ATOM     23  H   UNL     1     -11.158   6.718 -17.521  0.00  0.00    +0.292 HD
ENDBRANCH  21  22
ENDBRANCH   8  16
BRANCH   4  24
ATOM     24  O   UNL     1     -12.978   0.300 -16.414  0.00  0.00    -0.503 OA
ATOM     25  H   UNL     1     -13.880  -0.073 -16.435  0.00  0.00    +0.292 HD
ENDBRANCH   4  24
BRANCH   5  26
ATOM     26  O   UNL     1     -12.098   1.119 -18.840  0.00  0.00    -0.503 OA
ATOM     27  H   UNL     1     -11.137   1.167 -18.698  0.00  0.00    +0.292 HD
ENDBRANCH   5  26
BRANCH  11  28
ATOM     28  O   UNL     1     -15.340   9.969 -15.800  0.00  0.00    -0.503 OA
ATOM     29  H   UNL     1     -16.255  10.043 -15.428  0.00  0.00    +0.292 HD
ENDBRANCH  11  28
TORSDOF 5
ENDMDL
MODEL 2
REMARK VINA RESULT:      -7.6      0.251      5.316
REMARK  Name = min_compound995.pdb
REMARK  5 active torsions:
REMARK  status: ('A' for Active; 'I' for Inactive)
REMARK    1  A    between atoms: _6  and  _24
REMARK    2  A    between atoms: _8  and  _9
REMARK    3  A    between atoms: _12  and  _25
REMARK    4  A    between atoms: _15  and  _22
REMARK    5  A    between atoms: _19  and  _23
REMARK                            x       y       z     vdW  Elec       q    Type
REMARK                         _______ _______ _______ _____ _____    ______ ____
ROOT
ATOM      1  O   UNL     1     -14.501   4.786 -15.432  0.00  0.00    -0.483 OA
ATOM      2  C   UNL     1     -14.864   6.065 -15.781  0.00  0.00    +0.231 C 
ATOM      3  C   UNL     1     -15.584   6.741 -14.783  0.00  0.00    +0.071 C 
ATOM      4  C   UNL     1     -15.895   8.075 -14.955  0.00  0.00    +0.158 C 
ATOM      5  C   UNL     1     -15.468   8.747 -16.090  0.00  0.00    +0.158 C 
ATOM      6  C   UNL     1     -14.752   8.077 -17.083  0.00  0.00    +0.057 C 
ATOM      7  C   UNL     1     -14.492   6.694 -16.983  0.00  0.00    +0.009 C 
ATOM      8  C   UNL     1     -13.704   5.878 -17.982  0.00  0.00    +0.003 C 
ATOM      9  C   UNL     1     -13.454   4.440 -17.619  0.00  0.00    +0.025 C 
ATOM     10  C   UNL     1     -13.003   3.456 -18.506  0.00  0.00    +0.060 C 
ATOM     11  C   UNL     1     -12.820   2.144 -18.063  0.00  0.00    +0.160 C 
ATOM     12  C   UNL     1     -13.097   1.685 -16.765  0.00  0.00    +0.204 C 
ATOM     13  C   UNL     1     -13.638   2.670 -15.930  0.00  0.00    +0.157 C 
ATOM     14  O   UNL     1     -12.899   0.474 -16.408  0.00  0.00    -0.288 OA
ATOM     15  C   UNL     1     -13.842   4.002 -16.349  0.00  0.00    +0.114 C 
ENDROOT
BRANCH   8  16
ATOM     16  C   UNL     1     -13.256   6.415 -19.158  0.00  0.00    +0.025 A 
ATOM     17  C   UNL     1     -14.083   6.292 -20.386  0.00  0.00    +0.012 A 
ATOM     18  C   UNL     1     -13.567   6.641 -21.697  0.00  0.00    +0.001 A 
ATOM     19  C   UNL     1     -12.319   7.121 -21.803  0.00  0.00    +0.004 A 
ATOM     20  C   UNL     1     -11.512   7.364 -20.623  0.00  0.00    +0.046 A 
ATOM     21  C   UNL     1     -11.923   7.042 -19.384  0.00  0.00    +0.125 A 
BRANCH  21  22
ATOM     22  O   UNL     1     -11.179   7.495 -18.311  0.00  0.00    -0.506 OA
ATOM     23  H   UNL     1     -11.202   8.467 -18.286  0.00  0.00    +0.292 HD
ENDBRANCH  21  22
ENDBRANCH   8  16
BRANCH   4  24
ATOM     24  O   UNL     1     -16.589   8.740 -13.987  0.00  0.00    -0.503 OA
ATOM     25  H   UNL     1     -16.278   8.343 -13.151  0.00  0.00    +0.292 HD
ENDBRANCH   4  24
BRANCH   5  26
ATOM     26  O   UNL     1     -15.754  10.082 -16.186  0.00  0.00    -0.503 OA
ATOM     27  H   UNL     1     -14.943  10.542 -16.461  0.00  0.00    +0.292 HD
ENDBRANCH   5  26
BRANCH  11  28
ATOM     28  O   UNL     1     -12.339   1.206 -18.949  0.00  0.00    -0.503 OA
ATOM     29  H   UNL     1     -13.188   1.011 -19.418  0.00  0.00    +0.292 HD
ENDBRANCH  11  28
TORSDOF 5
ENDMDL
MODEL 3
REMARK VINA RESULT:      -7.6      2.957      5.060
REMARK  Name = min_compound995.pdb
REMARK  5 active torsions:
REMARK  status: ('A' for Active; 'I' for Inactive)
REMARK    1  A    between atoms: _6  and  _24
REMARK    2  A    between atoms: _8  and  _9
REMARK    3  A    between atoms: _12  and  _25
REMARK    4  A    between atoms: _15  and  _22
REMARK    5  A    between atoms: _19  and  _23
REMARK                            x       y       z     vdW  Elec       q    Type
REMARK                         _______ _______ _______ _____ _____    ______ ____
ROOT
ATOM      1  O   UNL     1     -15.284   4.373 -18.523  0.00  0.00    -0.483 OA
ATOM      2  C   UNL     1     -14.735   3.446 -19.376  0.00  0.00    +0.231 C 
ATOM      3  C   UNL     1     -15.224   3.524 -20.689  0.00  0.00    +0.071 C 
ATOM      4  C   UNL     1     -14.660   2.737 -21.673  0.00  0.00    +0.158 C 
ATOM      5  C   UNL     1     -13.596   1.901 -21.369  0.00  0.00    +0.158 C 
ATOM      6  C   UNL     1     -13.108   1.822 -20.065  0.00  0.00    +0.057 C 
ATOM      7  C   UNL     1     -13.715   2.545 -19.016  0.00  0.00    +0.009 C 
ATOM      8  C   UNL     1     -13.251   2.555 -17.578  0.00  0.00    +0.003 C 
ATOM      9  C   UNL     1     -13.981   3.485 -16.649  0.00  0.00    +0.025 C 
ATOM     10  C   UNL     1     -13.905   3.447 -15.252  0.00  0.00    +0.060 C 
ATOM     11  C   UNL     1     -14.640   4.352 -14.484  0.00  0.00    +0.160 C 
ATOM     12  C   UNL     1     -15.522   5.316 -15.000  0.00  0.00    +0.204 C 
ATOM     13  C   UNL     1     -15.650   5.266 -16.392  0.00  0.00    +0.157 C 
ATOM     14  O   UNL     1     -16.163   6.131 -14.251  0.00  0.00    -0.288 OA
ATOM     15  C   UNL     1     -14.927   4.359 -17.196  0.00  0.00    +0.114 C 
ENDROOT
BRANCH   8  16
ATOM     16  C   UNL     1     -12.234   1.750 -17.142  0.00  0.00    +0.025 A 
ATOM     17  C   UNL     1     -12.485   0.304 -16.915  0.00  0.00    +0.012 A 
ATOM     18  C   UNL     1     -11.516  -0.548 -16.248  0.00  0.00    +0.001 A 
ATOM     19  C   UNL     1     -10.345  -0.024 -15.856  0.00  0.00    +0.004 A 
ATOM     20  C   UNL     1     -10.008   1.354 -16.155  0.00  0.00    +0.046 A 
ATOM     21  C   UNL     1     -10.868   2.199 -16.748  0.00  0.00    +0.125 A 
BRANCH  21  22
ATOM     22  O   UNL     1     -10.392   3.424 -17.176  0.00  0.00    -0.506 OA
ATOM     23  H   UNL     1      -9.608   3.291 -17.736  0.00  0.00    +0.292 HD
ENDBRANCH  21  22
ENDBRANCH   8  16
BRANCH   4  24
ATOM     24  O   UNL     1     -15.126   2.813 -22.953  0.00  0.00    -0.503 OA
ATOM     25  H   UNL     1     -14.848   3.697 -23.260  0.00  0.00    +0.292 HD
ENDBRANCH   4  24
BRANCH   5  26
ATOM     26  O   UNL     1     -13.037   1.184 -22.392  0.00  0.00    -0.503 OA
ATOM     27  H   UNL     1     -12.186   0.832 -22.080  0.00  0.00    +0.292 HD
ENDBRANCH   5  26
BRANCH  11  28
ATOM     28  O   UNL     1     -14.516   4.315 -13.113  0.00  0.00    -0.503 OA
ATOM     29  H   UNL     1     -14.554   3.332 -12.999  0.00  0.00    +0.292 HD
ENDBRANCH  11  28
TORSDOF 5
ENDMDL
MODEL 4
REMARK VINA RESULT:      -7.6      2.499      7.157
REMARK  Name = min_compound995.pdb
REMARK  5 active torsions:
REMARK  status: ('A' for Active; 'I' for Inactive)
REMARK    1  A    between atoms: _6  and  _24
REMARK    2  A    between atoms: _8  and  _9
REMARK    3  A    between atoms: _12  and  _25
REMARK    4  A    between atoms: _15  and  _22
REMARK    5  A    between atoms: _19  and  _23
REMARK                            x       y       z     vdW  Elec       q    Type
REMARK                         _______ _______ _______ _____ _____    ______ ____
ROOT
ATOM      1  O   UNL     1     -13.227   6.394 -17.518  0.00  0.00    -0.483 OA
ATOM      2  C   UNL     1     -14.339   7.031 -17.020  0.00  0.00    +0.231 C 
ATOM      3  C   UNL     1     -14.576   8.289 -17.594  0.00  0.00    +0.071 C 
ATOM      4  C   UNL     1     -15.732   8.974 -17.277  0.00  0.00    +0.158 C 
ATOM      5  C   UNL     1     -16.665   8.405 -16.425  0.00  0.00    +0.158 C 
ATOM      6  C   UNL     1     -16.432   7.154 -15.854  0.00  0.00    +0.057 C 
ATOM      7  C   UNL     1     -15.224   6.463 -16.084  0.00  0.00    +0.009 C 
ATOM      8  C   UNL     1     -14.881   5.095 -15.541  0.00  0.00    +0.003 C 
ATOM      9  C   UNL     1     -13.580   4.500 -16.005  0.00  0.00    +0.025 C 
ATOM     10  C   UNL     1     -12.948   3.396 -15.422  0.00  0.00    +0.060 C 
ATOM     11  C   UNL     1     -11.731   2.936 -15.926  0.00  0.00    +0.160 C 
ATOM     12  C   UNL     1     -11.023   3.527 -16.986  0.00  0.00    +0.204 C 
ATOM     13  C   UNL     1     -11.631   4.685 -17.485  0.00  0.00    +0.157 C 
ATOM     14  O   UNL     1      -9.915   3.057 -17.418  0.00  0.00    -0.288 OA
ATOM     15  C   UNL     1     -12.857   5.179 -16.992  0.00  0.00    +0.114 C 
ENDROOT
BRANCH   8  16
ATOM     16  C   UNL     1     -15.702   4.440 -14.664  0.00  0.00    +0.025 A 
ATOM     17  C   UNL     1     -15.665   4.790 -13.221  0.00  0.00    +0.012 A 
ATOM     18  C   UNL     1     -16.343   3.987 -12.219  0.00  0.00    +0.001 A 
ATOM     19  C   UNL     1     -17.053   2.917 -12.608  0.00  0.00    +0.004 A 
ATOM     20  C   UNL     1     -17.211   2.600 -14.014  0.00  0.00    +0.046 A 
ATOM     21  C   UNL     1     -16.592   3.290 -14.988  0.00  0.00    +0.125 A 
BRANCH  21  22
ATOM     22  O   UNL     1     -16.961   3.046 -16.297  0.00  0.00    -0.506 OA
ATOM     23  H   UNL     1     -17.930   2.985 -16.356  0.00  0.00    +0.292 HD
ENDBRANCH  21  22
ENDBRANCH   8  16
BRANCH   4  24
ATOM     24  O   UNL     1     -15.972  10.195 -17.837  0.00  0.00    -0.503 OA
ATOM     25  H   UNL     1     -16.904  10.383 -17.616  0.00  0.00    +0.292 HD
ENDBRANCH   4  24
BRANCH   5  26
ATOM     26  O   UNL     1     -17.820   9.101 -16.188  0.00  0.00    -0.503 OA
ATOM     27  H   UNL     1     -17.836   9.865 -16.789  0.00  0.00    +0.292 HD
ENDBRANCH   5  26
BRANCH  11  28
ATOM     28  O   UNL     1     -11.152   1.825 -15.355  0.00  0.00    -0.503 OA
ATOM     29  H   UNL     1     -10.982   2.205 -14.457  0.00  0.00    +0.292 HD
ENDBRANCH  11  28
TORSDOF 5
ENDMDL
MODEL 5
REMARK VINA RESULT:      -7.5      3.098      6.573
REMARK  Name = min_compound995.pdb
REMARK  5 active torsions:
REMARK  status: ('A' for Active; 'I' for Inactive)
REMARK    1  A    between atoms: _6  and  _24
REMARK    2  A    between atoms: _8  and  _9
REMARK    3  A    between atoms: _12  and  _25
REMARK    4  A    between atoms: _15  and  _22
REMARK    5  A    between atoms: _19  and  _23
REMARK                            x       y       z     vdW  Elec       q    Type
REMARK                         _______ _______ _______ _____ _____    ______ ____
ROOT
ATOM      1  O   UNL     1     -15.542   4.019 -18.564  0.00  0.00    -0.483 OA
ATOM      2  C   UNL     1     -15.110   4.110 -17.263  0.00  0.00    +0.231 C 
ATOM      3  C   UNL     1     -15.889   4.962 -16.466  0.00  0.00    +0.071 C 
ATOM      4  C   UNL     1     -15.641   5.041 -15.110  0.00  0.00    +0.158 C 
ATOM      5  C   UNL     1     -14.652   4.255 -14.538  0.00  0.00    +0.158 C 
ATOM      6  C   UNL     1     -13.876   3.407 -15.328  0.00  0.00    +0.057 C 
ATOM      7  C   UNL     1     -14.041   3.366 -16.729  0.00  0.00    +0.009 C 
ATOM      8  C   UNL     1     -13.278   2.465 -17.673  0.00  0.00    +0.003 C 
ATOM      9  C   UNL     1     -13.695   2.508 -19.118  0.00  0.00    +0.025 C 
ATOM     10  C   UNL     1     -12.955   1.982 -20.182  0.00  0.00    +0.060 C 
ATOM     11  C   UNL     1     -13.431   2.091 -21.490  0.00  0.00    +0.160 C 
ATOM     12  C   UNL     1     -14.616   2.747 -21.863  0.00  0.00    +0.204 C 
ATOM     13  C   UNL     1     -15.284   3.346 -20.789  0.00  0.00    +0.157 C 
ATOM     14  O   UNL     1     -15.014   2.807 -23.077  0.00  0.00    -0.288 OA
ATOM     15  C   UNL     1     -14.825   3.259 -19.458  0.00  0.00    +0.114 C 
ENDROOT
BRANCH   8  16
ATOM     16  C   UNL     1     -12.255   1.667 -17.240  0.00  0.00    +0.025 A 
ATOM     17  C   UNL     1     -12.498   0.220 -17.007  0.00  0.00    +0.012 A 
ATOM     18  C   UNL     1     -11.523  -0.625 -16.341  0.00  0.00    +0.001 A 
ATOM     19  C   UNL     1     -10.352  -0.095 -15.956  0.00  0.00    +0.004 A 
ATOM     20  C   UNL     1     -10.022   1.284 -16.261  0.00  0.00    +0.046 A 
ATOM     21  C   UNL     1     -10.890   2.124 -16.853  0.00  0.00    +0.125 A 
BRANCH  21  22
ATOM     22  O   UNL     1     -10.421   3.349 -17.286  0.00  0.00    -0.506 OA
ATOM     23  H   UNL     1     -11.171   3.916 -17.533  0.00  0.00    +0.292 HD
ENDBRANCH  21  22
ENDBRANCH   8  16
BRANCH   4  24
ATOM     24  O   UNL     1     -16.399   5.862 -14.327  0.00  0.00    -0.503 OA
ATOM     25  H   UNL     1     -15.821   6.077 -13.570  0.00  0.00    +0.292 HD
ENDBRANCH   4  24
BRANCH   5  26
ATOM     26  O   UNL     1     -14.485   4.329 -13.182  0.00  0.00    -0.503 OA
ATOM     27  H   UNL     1     -15.352   4.515 -12.784  0.00  0.00    +0.292 HD
ENDBRANCH   5  26
BRANCH  11  28
ATOM     28  O   UNL     1     -12.699   1.530 -22.513  0.00  0.00    -0.503 OA
ATOM     29  H   UNL     1     -12.741   2.291 -23.145  0.00  0.00    +0.292 HD
ENDBRANCH  11  28
TORSDOF 5
ENDMDL
MODEL 6
REMARK VINA RESULT:      -7.3     14.181     17.086
REMARK  Name = min_compound995.pdb
REMARK  5 active torsions:
REMARK  status: ('A' for Active; 'I' for Inactive)
REMARK    1  A    between atoms: _6  and  _24
REMARK    2  A    between atoms: _8  and  _9
REMARK    3  A    between atoms: _12  and  _25
REMARK    4  A    between atoms: _15  and  _22
REMARK    5  A    between atoms: _19  and  _23
REMARK                            x       y       z     vdW  Elec       q    Type
REMARK                         _______ _______ _______ _____ _____    ______ ____
ROOT
ATOM      1  O   UNL     1     -17.521  -3.564  -1.808  0.00  0.00    -0.483 OA
ATOM      2  C   UNL     1     -18.056  -2.794  -2.811  0.00  0.00    +0.231 C 
ATOM      3  C   UNL     1     -19.436  -2.977  -2.991  0.00  0.00    +0.071 C 
ATOM      4  C   UNL     1     -20.119  -2.169  -3.878  0.00  0.00    +0.158 C 
ATOM      5  C   UNL     1     -19.450  -1.162  -4.557  0.00  0.00    +0.158 C 
ATOM      6  C   UNL     1     -18.079  -0.977  -4.379  0.00  0.00    +0.057 C 
ATOM      7  C   UNL     1     -17.332  -1.839  -3.549  0.00  0.00    +0.009 C 
ATOM      8  C   UNL     1     -15.853  -1.713  -3.264  0.00  0.00    +0.003 C 
ATOM      9  C   UNL     1     -15.283  -2.677  -2.260  0.00  0.00    +0.025 C 
ATOM     10  C   UNL     1     -13.918  -2.917  -2.063  0.00  0.00    +0.060 C 
ATOM     11  C   UNL     1     -13.500  -3.848  -1.111  0.00  0.00    +0.160 C 
ATOM     12  C   UNL     1     -14.357  -4.637  -0.324  0.00  0.00    +0.204 C 
ATOM     13  C   UNL     1     -15.712  -4.444  -0.613  0.00  0.00    +0.157 C 
ATOM     14  O   UNL     1     -13.920  -5.468   0.544  0.00  0.00    -0.288 OA
ATOM     15  C   UNL     1     -16.167  -3.516  -1.574  0.00  0.00    +0.114 C 
ENDROOT
BRANCH   8  16
ATOM     16  C   UNL     1     -15.073  -0.782  -3.896  0.00  0.00    +0.025 A 
ATOM     17  C   UNL     1     -14.748   0.494  -3.208  0.00  0.00    +0.012 A 
ATOM     18  C   UNL     1     -14.118   1.602  -3.904  0.00  0.00    +0.001 A 
ATOM     19  C   UNL     1     -13.787   1.459  -5.196  0.00  0.00    +0.004 A 
ATOM     20  C   UNL     1     -13.982   0.196  -5.880  0.00  0.00    +0.046 A 
ATOM     21  C   UNL     1     -14.579  -0.859  -5.300  0.00  0.00    +0.125 A 
BRANCH  21  22
ATOM     22  O   UNL     1     -14.537  -2.076  -5.954  0.00  0.00    -0.506 OA
ATOM     23  H   UNL     1     -13.921  -2.671  -5.494  0.00  0.00    +0.292 HD
ENDBRANCH  21  22
ENDBRANCH   8  16
BRANCH   4  24
ATOM     24  O   UNL     1     -21.462  -2.337  -4.053  0.00  0.00    -0.503 OA
ATOM     25  H   UNL     1     -21.533  -2.938  -4.820  0.00  0.00    +0.292 HD
ENDBRANCH   4  24
BRANCH   5  26
ATOM     26  O   UNL     1     -20.185  -0.353  -5.381  0.00  0.00    -0.503 OA
ATOM     27  H   UNL     1     -19.984  -0.601  -6.299  0.00  0.00    +0.292 HD
ENDBRANCH   5  26
BRANCH  11  28
ATOM     28  O   UNL     1     -12.150  -4.035  -0.913  0.00  0.00    -0.503 OA
ATOM     29  H   UNL     1     -11.855  -3.911  -1.849  0.00  0.00    +0.292 HD
ENDBRANCH  11  28
TORSDOF 5
ENDMDL
MODEL 7
REMARK VINA RESULT:      -7.3     14.236     16.754
REMARK  Name = min_compound995.pdb
REMARK  5 active torsions:
REMARK  status: ('A' for Active; 'I' for Inactive)
REMARK    1  A    between atoms: _6  and  _24
REMARK    2  A    between atoms: _8  and  _9
REMARK    3  A    between atoms: _12  and  _25
REMARK    4  A    between atoms: _15  and  _22
REMARK    5  A    between atoms: _19  and  _23
REMARK                            x       y       z     vdW  Elec       q    Type
REMARK                         _______ _______ _______ _____ _____    ______ ____
ROOT
ATOM      1  O   UNL     1     -17.351  -3.841  -1.977  0.00  0.00    -0.483 OA
ATOM      2  C   UNL     1     -16.019  -3.705  -1.668  0.00  0.00    +0.231 C 
ATOM      3  C   UNL     1     -15.544  -4.674  -0.770  0.00  0.00    +0.071 C 
ATOM      4  C   UNL     1     -14.195  -4.729  -0.479  0.00  0.00    +0.158 C 
ATOM      5  C   UNL     1     -13.315  -3.855  -1.099  0.00  0.00    +0.158 C 
ATOM      6  C   UNL     1     -13.785  -2.892  -1.992  0.00  0.00    +0.057 C 
ATOM      7  C   UNL     1     -15.165  -2.748  -2.246  0.00  0.00    +0.009 C 
ATOM      8  C   UNL     1     -15.777  -1.761  -3.213  0.00  0.00    +0.003 C 
ATOM      9  C   UNL     1     -17.266  -1.856  -3.410  0.00  0.00    +0.025 C 
ATOM     10  C   UNL     1     -18.057  -0.882  -4.027  0.00  0.00    +0.060 C 
ATOM     11  C   UNL     1     -19.436  -1.068  -4.143  0.00  0.00    +0.160 C 
ATOM     12  C   UNL     1     -20.146  -2.171  -3.638  0.00  0.00    +0.204 C 
ATOM     13  C   UNL     1     -19.341  -3.079  -2.942  0.00  0.00    +0.157 C 
ATOM     14  O   UNL     1     -21.410  -2.298  -3.782  0.00  0.00    -0.288 OA
ATOM     15  C   UNL     1     -17.946  -2.917  -2.802  0.00  0.00    +0.114 C 
ENDROOT
BRANCH   8  16
ATOM     16  C   UNL     1     -15.021  -0.823  -3.863  0.00  0.00    +0.025 A 
ATOM     17  C   UNL     1     -14.661   0.440  -3.170  0.00  0.00    +0.012 A 
ATOM     18  C   UNL     1     -14.058   1.557  -3.874  0.00  0.00    +0.001 A 
ATOM     19  C   UNL     1     -13.784   1.435  -5.182  0.00  0.00    +0.004 A 
ATOM     20  C   UNL     1     -14.013   0.184  -5.877  0.00  0.00    +0.046 A 
ATOM     21  C   UNL     1     -14.590  -0.879  -5.288  0.00  0.00    +0.125 A 
BRANCH  21  22
ATOM     22  O   UNL     1     -14.581  -2.085  -5.963  0.00  0.00    -0.506 OA
ATOM     23  H   UNL     1     -14.253  -1.949  -6.869  0.00  0.00    +0.292 HD
ENDBRANCH  21  22
ENDBRANCH   8  16
BRANCH   4  24
ATOM     24  O   UNL     1     -13.726  -5.672   0.388  0.00  0.00    -0.503 OA
ATOM     25  H   UNL     1     -14.397  -5.705   1.096  0.00  0.00    +0.292 HD
ENDBRANCH   4  24
BRANCH   5  26
ATOM     26  O   UNL     1     -11.982  -3.989  -0.819  0.00  0.00    -0.503 OA
ATOM     27  H   UNL     1     -11.880  -3.997   0.148  0.00  0.00    +0.292 HD
ENDBRANCH   5  26
BRANCH  11  28
ATOM     28  O   UNL     1     -20.184  -0.109  -4.789  0.00  0.00    -0.503 OA
ATOM     29  H   UNL     1     -20.365  -0.613  -5.621  0.00  0.00    +0.292 HD
ENDBRANCH  11  28
TORSDOF 5
ENDMDL
MODEL 8
REMARK VINA RESULT:      -7.2      2.509      6.751
REMARK  Name = min_compound995.pdb
REMARK  5 active torsions:
REMARK  status: ('A' for Active; 'I' for Inactive)
REMARK    1  A    between atoms: _6  and  _24
REMARK    2  A    between atoms: _8  and  _9
REMARK    3  A    between atoms: _12  and  _25
REMARK    4  A    between atoms: _15  and  _22
REMARK    5  A    between atoms: _19  and  _23
REMARK                            x       y       z     vdW  Elec       q    Type
REMARK                         _______ _______ _______ _____ _____    ______ ____
ROOT
ATOM      1  O   UNL     1     -15.751   5.776 -20.139  0.00  0.00    -0.483 OA
ATOM      2  C   UNL     1     -15.369   6.631 -19.133  0.00  0.00    +0.231 C 
ATOM      3  C   UNL     1     -16.066   7.849 -19.129  0.00  0.00    +0.071 C 
ATOM      4  C   UNL     1     -15.870   8.741 -18.094  0.00  0.00    +0.158 C 
ATOM      5  C   UNL     1     -15.016   8.418 -17.051  0.00  0.00    +0.158 C 
ATOM      6  C   UNL     1     -14.323   7.208 -17.052  0.00  0.00    +0.057 C 
ATOM      7  C   UNL     1     -14.430   6.310 -18.135  0.00  0.00    +0.009 C 
ATOM      8  C   UNL     1     -13.748   4.964 -18.226  0.00  0.00    +0.003 C 
ATOM      9  C   UNL     1     -14.092   4.122 -19.424  0.00  0.00    +0.025 C 
ATOM     10  C   UNL     1     -13.380   2.992 -19.841  0.00  0.00    +0.060 C 
ATOM     11  C   UNL     1     -13.780   2.292 -20.981  0.00  0.00    +0.160 C 
ATOM     12  C   UNL     1     -14.854   2.653 -21.812  0.00  0.00    +0.204 C 
ATOM     13  C   UNL     1     -15.485   3.840 -21.424  0.00  0.00    +0.157 C 
ATOM     14  O   UNL     1     -15.187   1.968 -22.840  0.00  0.00    -0.288 OA
ATOM     15  C   UNL     1     -15.100   4.574 -20.282  0.00  0.00    +0.114 C 
ENDROOT
BRANCH   8  16
ATOM     16  C   UNL     1     -12.856   4.542 -17.278  0.00  0.00    +0.025 A 
ATOM     17  C   UNL     1     -11.461   5.050 -17.302  0.00  0.00    +0.012 A 
ATOM     18  C   UNL     1     -10.420   4.476 -16.468  0.00  0.00    +0.001 A 
ATOM     19  C   UNL     1     -10.732   3.480 -15.625  0.00  0.00    +0.004 A 
ATOM     20  C   UNL     1     -12.102   3.025 -15.484  0.00  0.00    +0.046 A 
ATOM     21  C   UNL     1     -13.106   3.500 -16.242  0.00  0.00    +0.125 A 
BRANCH  21  22
ATOM     22  O   UNL     1     -14.400   3.159 -15.899  0.00  0.00    -0.506 OA
ATOM     23  H   UNL     1     -14.983   3.276 -16.669  0.00  0.00    +0.292 HD
ENDBRANCH  21  22
ENDBRANCH   8  16
BRANCH   4  24
ATOM     24  O   UNL     1     -16.550   9.925 -18.081  0.00  0.00    -0.503 OA
ATOM     25  H   UNL     1     -15.901  10.572 -17.743  0.00  0.00    +0.292 HD
ENDBRANCH   4  24
BRANCH   5  26
ATOM     26  O   UNL     1     -14.901   9.313 -16.022  0.00  0.00    -0.503 OA
ATOM     27  H   UNL     1     -15.740   9.313 -15.530  0.00  0.00    +0.292 HD
ENDBRANCH   5  26
BRANCH  11  28
ATOM     28  O   UNL     1     -13.083   1.162 -21.346  0.00  0.00    -0.503 OA
ATOM     29  H   UNL     1     -13.547   0.517 -20.756  0.00  0.00    +0.292 HD
ENDBRANCH  11  28
TORSDOF 5
ENDMDL
MODEL 9
REMARK VINA RESULT:      -7.1      2.260      7.552
REMARK  Name = min_compound995.pdb
REMARK  5 active torsions:
REMARK  status: ('A' for Active; 'I' for Inactive)
REMARK    1  A    between atoms: _6  and  _24
REMARK    2  A    between atoms: _8  and  _9
REMARK    3  A    between atoms: _12  and  _25
REMARK    4  A    between atoms: _15  and  _22
REMARK    5  A    between atoms: _19  and  _23
REMARK                            x       y       z     vdW  Elec       q    Type
REMARK                         _______ _______ _______ _____ _____    ______ ____
ROOT
ATOM      1  O   UNL     1     -14.536   6.124 -17.475  0.00  0.00    -0.483 OA
ATOM      2  C   UNL     1     -15.017   7.014 -16.545  0.00  0.00    +0.231 C 
ATOM      3  C   UNL     1     -15.126   8.329 -17.024  0.00  0.00    +0.071 C 
ATOM      4  C   UNL     1     -15.718   9.293 -16.232  0.00  0.00    +0.158 C 
ATOM      5  C   UNL     1     -16.231   8.953 -14.990  0.00  0.00    +0.158 C 
ATOM      6  C   UNL     1     -16.123   7.647 -14.512  0.00  0.00    +0.057 C 
ATOM      7  C   UNL     1     -15.448   6.655 -15.254  0.00  0.00    +0.009 C 
ATOM      8  C   UNL     1     -15.299   5.208 -14.847  0.00  0.00    +0.003 C 
ATOM      9  C   UNL     1     -14.634   4.299 -15.844  0.00  0.00    +0.025 C 
ATOM     10  C   UNL     1     -14.151   3.016 -15.564  0.00  0.00    +0.060 C 
ATOM     11  C   UNL     1     -13.535   2.263 -16.566  0.00  0.00    +0.160 C 
ATOM     12  C   UNL     1     -13.304   2.706 -17.879  0.00  0.00    +0.204 C 
ATOM     13  C   UNL     1     -13.710   4.027 -18.101  0.00  0.00    +0.157 C 
ATOM     14  O   UNL     1     -12.746   1.970 -18.763  0.00  0.00    -0.288 OA
ATOM     15  C   UNL     1     -14.329   4.815 -17.108  0.00  0.00    +0.114 C 
ENDROOT
BRANCH   8  16
ATOM     16  C   UNL     1     -15.732   4.752 -13.631  0.00  0.00    +0.025 A 
ATOM     17  C   UNL     1     -14.953   5.070 -12.406  0.00  0.00    +0.012 A 
ATOM     18  C   UNL     1     -15.235   4.435 -11.131  0.00  0.00    +0.001 A 
ATOM     19  C   UNL     1     -16.251   3.563 -11.045  0.00  0.00    +0.004 A 
ATOM     20  C   UNL     1     -17.109   3.304 -12.184  0.00  0.00    +0.046 A 
ATOM     21  C   UNL     1     -16.888   3.841 -13.397  0.00  0.00    +0.125 A 
BRANCH  21  22
ATOM     22  O   UNL     1     -17.867   3.703 -14.362  0.00  0.00    -0.506 OA
ATOM     23  H   UNL     1     -18.198   4.581 -14.618  0.00  0.00    +0.292 HD
ENDBRANCH  21  22
ENDBRANCH   8  16
BRANCH   4  24
ATOM     24  O   UNL     1     -15.834  10.572 -16.693  0.00  0.00    -0.503 OA
ATOM     25  H   UNL     1     -16.530  10.968 -16.135  0.00  0.00    +0.292 HD
ENDBRANCH   4  24
BRANCH   5  26
ATOM     26  O   UNL     1     -16.858   9.934 -14.269  0.00  0.00    -0.503 OA
ATOM     27  H   UNL     1     -16.426  10.780 -14.478  0.00  0.00    +0.292 HD
ENDBRANCH   5  26
BRANCH  11  28
ATOM     28  O   UNL     1     -13.105   0.990 -16.269  0.00  0.00    -0.503 OA
ATOM     29  H   UNL     1     -12.133   1.177 -16.238  0.00  0.00    +0.292 HD
ENDBRANCH  11  28
TORSDOF 5
ENDMDL
