MODEL 1
REMARK VINA RESULT:      -6.6      0.000      0.000
REMARK  Name = min_compound930.pdb
REMARK  6 active torsions:
REMARK  status: ('A' for Active; 'I' for Inactive)
REMARK    1  A    between atoms: _3  and  _19
REMARK    2  A    between atoms: _16  and  _18
REMARK    3  A    between atoms: _18  and  _21
REMARK    4  A    between atoms: _19  and  _20
REMARK    5  A    between atoms: _21  and  _22
REMARK    6  A    between atoms: _22  and  _23
REMARK                            x       y       z     vdW  Elec       q    Type
REMARK                         _______ _______ _______ _____ _____    ______ ____
ROOT
ATOM      1  C   UNL     1     -15.593   8.541 -14.900  0.00  0.00    +0.004 A 
ATOM      2  C   UNL     1     -16.179   7.474 -14.213  0.00  0.00    +0.049 A 
ATOM      3  C   UNL     1     -16.015   6.162 -14.667  0.00  0.00    +0.162 A 
ATOM      4  C   UNL     1     -15.239   5.935 -15.817  0.00  0.00    +0.175 A 
ATOM      5  O   UNL     1     -15.155   4.653 -16.314  0.00  0.00    -0.450 OA
ATOM      6  C   UNL     1     -13.904   4.077 -16.424  0.00  0.00    +0.149 A 
ATOM      7  C   UNL     1     -13.878   2.733 -16.017  0.00  0.00    +0.049 A 
ATOM      8  C   UNL     1     -12.708   1.982 -16.112  0.00  0.00    +0.019 A 
ATOM      9  C   UNL     1     -11.552   2.577 -16.614  0.00  0.00    +0.061 A 
ATOM     10  C   UNL     1     -11.568   3.926 -16.991  0.00  0.00    +0.041 A 
ATOM     11  C   UNL     1     -12.754   4.682 -16.972  0.00  0.00    +0.071 A 
ATOM     12  N   UNL     1     -12.656   6.014 -17.407  0.00  0.00    -0.337 N 
ATOM     13  H   UNL     1     -11.920   6.148 -18.091  0.00  0.00    +0.147 HD
ATOM     14  C   UNL     1     -13.880   6.713 -17.760  0.00  0.00    +0.140 C 
ATOM     15  C   UNL     1     -14.669   7.001 -16.523  0.00  0.00    +0.015 A 
ATOM     16  C   UNL     1     -14.840   8.307 -16.049  0.00  0.00    +0.009 A 
ENDROOT
BRANCH   3  17
ATOM     17  O   UNL     1     -16.563   5.052 -14.076  0.00  0.00    -0.491 OA
ATOM     18  C   UNL     1     -15.863   4.491 -12.974  0.00  0.00    +0.277 C 
ENDBRANCH   3  17
BRANCH   9  19
ATOM     19  C   UNL     1     -10.309   1.771 -16.698  0.00  0.00    +0.339 C 
ATOM     20  O   UNL     1      -9.635   1.754 -17.719  0.00  0.00    -0.245 OA
BRANCH  19  21
ATOM     21  O   UNL     1      -9.998   1.026 -15.606  0.00  0.00    -0.461 OA
BRANCH  21  22
ATOM     22  C   UNL     1      -9.753  -0.385 -15.759  0.00  0.00    +0.229 C 
ATOM     23  C   UNL     1     -11.040  -1.040 -16.226  0.00  0.00    +0.048 C 
ENDBRANCH  21  22
ENDBRANCH  19  21
ENDBRANCH   9  19
TORSDOF 4
ENDMDL
MODEL 2
REMARK VINA RESULT:      -6.4      3.975      5.736
REMARK  Name = min_compound930.pdb
REMARK  6 active torsions:
REMARK  status: ('A' for Active; 'I' for Inactive)
REMARK    1  A    between atoms: _3  and  _19
REMARK    2  A    between atoms: _16  and  _18
REMARK    3  A    between atoms: _18  and  _21
REMARK    4  A    between atoms: _19  and  _20
REMARK    5  A    between atoms: _21  and  _22
REMARK    6  A    between atoms: _22  and  _23
REMARK                            x       y       z     vdW  Elec       q    Type
REMARK                         _______ _______ _______ _____ _____    ______ ____
ROOT
ATOM      1  C   UNL     1     -13.164   4.364 -24.116  0.00  0.00    +0.004 A 
ATOM      2  C   UNL     1     -12.866   5.526 -23.397  0.00  0.00    +0.049 A 
ATOM      3  C   UNL     1     -13.077   5.578 -22.016  0.00  0.00    +0.162 A 
ATOM      4  C   UNL     1     -13.580   4.439 -21.364  0.00  0.00    +0.175 A 
ATOM      5  O   UNL     1     -13.873   4.524 -20.020  0.00  0.00    -0.450 OA
ATOM      6  C   UNL     1     -13.231   3.658 -19.157  0.00  0.00    +0.149 A 
ATOM      7  C   UNL     1     -12.805   4.275 -17.969  0.00  0.00    +0.049 A 
ATOM      8  C   UNL     1     -12.186   3.537 -16.962  0.00  0.00    +0.019 A 
ATOM      9  C   UNL     1     -11.985   2.170 -17.143  0.00  0.00    +0.061 A 
ATOM     10  C   UNL     1     -12.381   1.557 -18.340  0.00  0.00    +0.041 A 
ATOM     11  C   UNL     1     -13.071   2.268 -19.337  0.00  0.00    +0.071 A 
ATOM     12  N   UNL     1     -13.450   1.540 -20.478  0.00  0.00    -0.337 N 
ATOM     13  H   UNL     1     -13.609   0.559 -20.279  0.00  0.00    +0.147 HD
ATOM     14  C   UNL     1     -14.466   2.107 -21.348  0.00  0.00    +0.140 C 
ATOM     15  C   UNL     1     -13.902   3.282 -22.081  0.00  0.00    +0.015 A 
ATOM     16  C   UNL     1     -13.679   3.247 -23.462  0.00  0.00    +0.009 A 
ENDROOT
BRANCH   3  17
ATOM     17  O   UNL     1     -12.835   6.673 -21.226  0.00  0.00    -0.491 OA
ATOM     18  C   UNL     1     -11.499   6.874 -20.787  0.00  0.00    +0.277 C 
ENDBRANCH   3  17
BRANCH   9  19
ATOM     19  C   UNL     1     -11.314   1.396 -16.069  0.00  0.00    +0.339 C 
ATOM     20  O   UNL     1     -10.784   1.959 -15.121  0.00  0.00    -0.245 OA
BRANCH  19  21
ATOM     21  O   UNL     1     -11.281   0.047 -16.229  0.00  0.00    -0.461 OA
BRANCH  21  22
ATOM     22  C   UNL     1     -10.021  -0.645 -16.136  0.00  0.00    +0.229 C 
ATOM     23  C   UNL     1      -9.207  -0.310 -17.372  0.00  0.00    +0.048 C 
ENDBRANCH  21  22
ENDBRANCH  19  21
ENDBRANCH   9  19
TORSDOF 4
ENDMDL
MODEL 3
REMARK VINA RESULT:      -6.2      2.175      3.280
REMARK  Name = min_compound930.pdb
REMARK  6 active torsions:
REMARK  status: ('A' for Active; 'I' for Inactive)
REMARK    1  A    between atoms: _3  and  _19
REMARK    2  A    between atoms: _16  and  _18
REMARK    3  A    between atoms: _18  and  _21
REMARK    4  A    between atoms: _19  and  _20
REMARK    5  A    between atoms: _21  and  _22
REMARK    6  A    between atoms: _22  and  _23
REMARK                            x       y       z     vdW  Elec       q    Type
REMARK                         _______ _______ _______ _____ _____    ______ ____
ROOT
ATOM      1  C   UNL     1     -18.988   5.882 -15.087  0.00  0.00    +0.004 A 
ATOM      2  C   UNL     1     -17.938   6.798 -15.203  0.00  0.00    +0.049 A 
ATOM      3  C   UNL     1     -16.618   6.393 -14.984  0.00  0.00    +0.162 A 
ATOM      4  C   UNL     1     -16.366   5.049 -14.662  0.00  0.00    +0.175 A 
ATOM      5  O   UNL     1     -15.075   4.675 -14.358  0.00  0.00    -0.450 OA
ATOM      6  C   UNL     1     -14.485   3.689 -15.124  0.00  0.00    +0.149 A 
ATOM      7  C   UNL     1     -13.147   3.968 -15.448  0.00  0.00    +0.049 A 
ATOM      8  C   UNL     1     -12.382   3.056 -16.172  0.00  0.00    +0.019 A 
ATOM      9  C   UNL     1     -12.957   1.854 -16.581  0.00  0.00    +0.061 A 
ATOM     10  C   UNL     1     -14.301   1.587 -16.286  0.00  0.00    +0.041 A 
ATOM     11  C   UNL     1     -15.069   2.460 -15.495  0.00  0.00    +0.071 A 
ATOM     12  N   UNL     1     -16.393   2.070 -15.235  0.00  0.00    -0.337 N 
ATOM     13  H   UNL     1     -16.508   1.062 -15.228  0.00  0.00    +0.147 HD
ATOM     14  C   UNL     1     -17.099   2.721 -14.145  0.00  0.00    +0.140 C 
ATOM     15  C   UNL     1     -17.415   4.133 -14.522  0.00  0.00    +0.015 A 
ATOM     16  C   UNL     1     -18.729   4.555 -14.750  0.00  0.00    +0.009 A 
ENDROOT
BRANCH   3  17
ATOM     17  O   UNL     1     -15.524   7.217 -15.055  0.00  0.00    -0.491 OA
ATOM     18  C   UNL     1     -15.690   8.557 -14.614  0.00  0.00    +0.277 C 
ENDBRANCH   3  17
BRANCH   9  19
ATOM     19  C   UNL     1     -12.137   0.895 -17.362  0.00  0.00    +0.339 C 
ATOM     20  O   UNL     1     -11.749   1.168 -18.490  0.00  0.00    -0.245 OA
BRANCH  19  21
ATOM     21  O   UNL     1     -11.890  -0.305 -16.775  0.00  0.00    -0.461 OA
BRANCH  21  22
ATOM     22  C   UNL     1     -10.595  -0.915 -16.933  0.00  0.00    +0.229 C 
ATOM     23  C   UNL     1      -9.713  -0.455 -15.787  0.00  0.00    +0.048 C 
ENDBRANCH  21  22
ENDBRANCH  19  21
ENDBRANCH   9  19
TORSDOF 4
ENDMDL
MODEL 4
REMARK VINA RESULT:      -6.2      4.582      6.809
REMARK  Name = min_compound930.pdb
REMARK  6 active torsions:
REMARK  status: ('A' for Active; 'I' for Inactive)
REMARK    1  A    between atoms: _3  and  _19
REMARK    2  A    between atoms: _16  and  _18
REMARK    3  A    between atoms: _18  and  _21
REMARK    4  A    between atoms: _19  and  _20
REMARK    5  A    between atoms: _21  and  _22
REMARK    6  A    between atoms: _22  and  _23
REMARK                            x       y       z     vdW  Elec       q    Type
REMARK                         _______ _______ _______ _____ _____    ______ ____
ROOT
ATOM      1  C   UNL     1     -10.729   3.154 -15.715  0.00  0.00    +0.004 A 
ATOM      2  C   UNL     1     -10.516   1.887 -16.268  0.00  0.00    +0.049 A 
ATOM      3  C   UNL     1     -11.316   1.431 -17.320  0.00  0.00    +0.162 A 
ATOM      4  C   UNL     1     -12.324   2.273 -17.820  0.00  0.00    +0.175 A 
ATOM      5  O   UNL     1     -13.168   1.785 -18.793  0.00  0.00    -0.450 OA
ATOM      6  C   UNL     1     -13.228   2.455 -20.000  0.00  0.00    +0.149 A 
ATOM      7  C   UNL     1     -13.255   1.595 -21.109  0.00  0.00    +0.049 A 
ATOM      8  C   UNL     1     -13.369   2.101 -22.403  0.00  0.00    +0.019 A 
ATOM      9  C   UNL     1     -13.452   3.479 -22.592  0.00  0.00    +0.061 A 
ATOM     10  C   UNL     1     -13.394   4.341 -21.489  0.00  0.00    +0.041 A 
ATOM     11  C   UNL     1     -13.352   3.850 -20.172  0.00  0.00    +0.071 A 
ATOM     12  N   UNL     1     -13.333   4.808 -19.145  0.00  0.00    -0.337 N 
ATOM     13  H   UNL     1     -13.802   5.669 -19.406  0.00  0.00    +0.147 HD
ATOM     14  C   UNL     1     -13.664   4.377 -17.798  0.00  0.00    +0.140 C 
ATOM     15  C   UNL     1     -12.557   3.532 -17.255  0.00  0.00    +0.015 A 
ATOM     16  C   UNL     1     -11.743   3.973 -16.205  0.00  0.00    +0.009 A 
ENDROOT
BRANCH   3  17
ATOM     17  O   UNL     1     -11.199   0.201 -17.917  0.00  0.00    -0.491 OA
ATOM     18  C   UNL     1     -10.151  -0.644 -17.464  0.00  0.00    +0.277 C 
ENDBRANCH   3  17
BRANCH   9  19
ATOM     19  C   UNL     1     -13.560   4.007 -23.975  0.00  0.00    +0.339 C 
ATOM     20  O   UNL     1     -14.493   3.692 -24.701  0.00  0.00    -0.245 OA
BRANCH  19  21
ATOM     21  O   UNL     1     -12.548   4.810 -24.395  0.00  0.00    -0.461 OA
BRANCH  21  22
ATOM     22  C   UNL     1     -11.216   4.272 -24.496  0.00  0.00    +0.229 C 
ATOM     23  C   UNL     1     -10.251   5.288 -23.911  0.00  0.00    +0.048 C 
ENDBRANCH  21  22
ENDBRANCH  19  21
ENDBRANCH   9  19
TORSDOF 4
ENDMDL
MODEL 5
REMARK VINA RESULT:      -6.2      6.570     10.065
REMARK  Name = min_compound930.pdb
REMARK  6 active torsions:
REMARK  status: ('A' for Active; 'I' for Inactive)
REMARK    1  A    between atoms: _3  and  _19
REMARK    2  A    between atoms: _16  and  _18
REMARK    3  A    between atoms: _18  and  _21
REMARK    4  A    between atoms: _19  and  _20
REMARK    5  A    between atoms: _21  and  _22
REMARK    6  A    between atoms: _22  and  _23
REMARK                            x       y       z     vdW  Elec       q    Type
REMARK                         _______ _______ _______ _____ _____    ______ ____
ROOT
ATOM      1  C   UNL     1     -15.001   2.264  -3.745  0.00  0.00    +0.004 A 
ATOM      2  C   UNL     1     -14.581   1.303  -4.670  0.00  0.00    +0.049 A 
ATOM      3  C   UNL     1     -15.203   1.201  -5.918  0.00  0.00    +0.162 A 
ATOM      4  C   UNL     1     -16.247   2.088  -6.229  0.00  0.00    +0.175 A 
ATOM      5  O   UNL     1     -16.918   1.924  -7.421  0.00  0.00    -0.450 OA
ATOM      6  C   UNL     1     -16.931   2.980  -8.312  0.00  0.00    +0.149 A 
ATOM      7  C   UNL     1     -16.737   2.580  -9.645  0.00  0.00    +0.049 A 
ATOM      8  C   UNL     1     -16.774   3.510 -10.682  0.00  0.00    +0.019 A 
ATOM      9  C   UNL     1     -17.002   4.853 -10.387  0.00  0.00    +0.061 A 
ATOM     10  C   UNL     1     -17.165   5.259  -9.056  0.00  0.00    +0.041 A 
ATOM     11  C   UNL     1     -17.204   4.329  -8.002  0.00  0.00    +0.071 A 
ATOM     12  N   UNL     1     -17.409   4.849  -6.714  0.00  0.00    -0.337 N 
ATOM     13  H   UNL     1     -17.949   5.707  -6.721  0.00  0.00    +0.147 HD
ATOM     14  C   UNL     1     -17.826   3.936  -5.664  0.00  0.00    +0.140 C 
ATOM     15  C   UNL     1     -16.689   3.036  -5.299  0.00  0.00    +0.015 A 
ATOM     16  C   UNL     1     -16.049   3.127  -4.057  0.00  0.00    +0.009 A 
ENDROOT
BRANCH   3  17
ATOM     17  O   UNL     1     -14.877   0.283  -6.884  0.00  0.00    -0.491 OA
ATOM     18  C   UNL     1     -15.132  -1.084  -6.593  0.00  0.00    +0.277 C 
ENDBRANCH   3  17
BRANCH   9  19
ATOM     19  C   UNL     1     -17.027   5.837 -11.499  0.00  0.00    +0.339 C 
ATOM     20  O   UNL     1     -17.282   7.015 -11.294  0.00  0.00    -0.245 OA
BRANCH  19  21
ATOM     21  O   UNL     1     -16.800   5.345 -12.744  0.00  0.00    -0.461 OA
BRANCH  21  22
ATOM     22  C   UNL     1     -15.565   5.659 -13.414  0.00  0.00    +0.229 C 
ATOM     23  C   UNL     1     -14.961   4.363 -13.922  0.00  0.00    +0.048 C 
ENDBRANCH  21  22
ENDBRANCH  19  21
ENDBRANCH   9  19
TORSDOF 4
ENDMDL
MODEL 6
REMARK VINA RESULT:      -6.1      3.413      6.151
REMARK  Name = min_compound930.pdb
REMARK  6 active torsions:
REMARK  status: ('A' for Active; 'I' for Inactive)
REMARK    1  A    between atoms: _3  and  _19
REMARK    2  A    between atoms: _16  and  _18
REMARK    3  A    between atoms: _18  and  _21
REMARK    4  A    between atoms: _19  and  _20
REMARK    5  A    between atoms: _21  and  _22
REMARK    6  A    between atoms: _22  and  _23
REMARK                            x       y       z     vdW  Elec       q    Type
REMARK                         _______ _______ _______ _____ _____    ______ ____
ROOT
ATOM      1  C   UNL     1     -12.232   6.157 -18.242  0.00  0.00    +0.004 A 
ATOM      2  C   UNL     1     -12.955   7.334 -18.021  0.00  0.00    +0.049 A 
ATOM      3  C   UNL     1     -14.093   7.325 -17.210  0.00  0.00    +0.162 A 
ATOM      4  C   UNL     1     -14.489   6.117 -16.612  0.00  0.00    +0.175 A 
ATOM      5  O   UNL     1     -15.662   6.092 -15.889  0.00  0.00    -0.450 OA
ATOM      6  C   UNL     1     -15.602   5.714 -14.562  0.00  0.00    +0.149 A 
ATOM      7  C   UNL     1     -16.402   6.509 -13.725  0.00  0.00    +0.049 A 
ATOM      8  C   UNL     1     -16.501   6.235 -12.361  0.00  0.00    +0.019 A 
ATOM      9  C   UNL     1     -15.794   5.160 -11.827  0.00  0.00    +0.061 A 
ATOM     10  C   UNL     1     -14.970   4.385 -12.655  0.00  0.00    +0.041 A 
ATOM     11  C   UNL     1     -14.911   4.599 -14.043  0.00  0.00    +0.071 A 
ATOM     12  N   UNL     1     -14.080   3.736 -14.776  0.00  0.00    -0.337 N 
ATOM     13  H   UNL     1     -13.992   2.821 -14.347  0.00  0.00    +0.147 HD
ATOM     14  C   UNL     1     -14.263   3.663 -16.215  0.00  0.00    +0.140 C 
ATOM     15  C   UNL     1     -13.784   4.931 -16.848  0.00  0.00    +0.015 A 
ATOM     16  C   UNL     1     -12.643   4.961 -17.658  0.00  0.00    +0.009 A 
ENDROOT
BRANCH   3  17
ATOM     17  O   UNL     1     -14.878   8.419 -16.948  0.00  0.00    -0.491 OA
ATOM     18  C   UNL     1     -15.708   8.890 -18.000  0.00  0.00    +0.277 C 
ENDBRANCH   3  17
BRANCH   9  19
ATOM     19  C   UNL     1     -15.898   4.885 -10.372  0.00  0.00    +0.339 C 
ATOM     20  O   UNL     1     -16.070   5.792  -9.569  0.00  0.00    -0.245 OA
BRANCH  19  21
ATOM     21  O   UNL     1     -15.742   3.591  -9.991  0.00  0.00    -0.461 OA
BRANCH  21  22
ATOM     22  C   UNL     1     -16.895   2.832  -9.580  0.00  0.00    +0.229 C 
ATOM     23  C   UNL     1     -16.475   1.912  -8.449  0.00  0.00    +0.048 C 
ENDBRANCH  21  22
ENDBRANCH  19  21
ENDBRANCH   9  19
TORSDOF 4
ENDMDL
MODEL 7
REMARK VINA RESULT:      -6.0      9.073     12.399
REMARK  Name = min_compound930.pdb
REMARK  6 active torsions:
REMARK  status: ('A' for Active; 'I' for Inactive)
REMARK    1  A    between atoms: _3  and  _19
REMARK    2  A    between atoms: _16  and  _18
REMARK    3  A    between atoms: _18  and  _21
REMARK    4  A    between atoms: _19  and  _20
REMARK    5  A    between atoms: _21  and  _22
REMARK    6  A    between atoms: _22  and  _23
REMARK                            x       y       z     vdW  Elec       q    Type
REMARK                         _______ _______ _______ _____ _____    ______ ____
ROOT
ATOM      1  C   UNL     1     -15.504  -2.450  -2.745  0.00  0.00    +0.004 A 
ATOM      2  C   UNL     1     -16.613  -1.697  -2.347  0.00  0.00    +0.049 A 
ATOM      3  C   UNL     1     -16.789  -0.392  -2.816  0.00  0.00    +0.162 A 
ATOM      4  C   UNL     1     -15.839   0.143  -3.703  0.00  0.00    +0.175 A 
ATOM      5  O   UNL     1     -15.966   1.459  -4.090  0.00  0.00    -0.450 OA
ATOM      6  C   UNL     1     -16.089   1.733  -5.439  0.00  0.00    +0.149 A 
ATOM      7  C   UNL     1     -17.053   2.716  -5.717  0.00  0.00    +0.049 A 
ATOM      8  C   UNL     1     -17.270   3.154  -7.022  0.00  0.00    +0.019 A 
ATOM      9  C   UNL     1     -16.521   2.604  -8.061  0.00  0.00    +0.061 A 
ATOM     10  C   UNL     1     -15.580   1.601  -7.789  0.00  0.00    +0.041 A 
ATOM     11  C   UNL     1     -15.295   1.196  -6.473  0.00  0.00    +0.071 A 
ATOM     12  N   UNL     1     -14.307   0.209  -6.321  0.00  0.00    -0.337 N 
ATOM     13  H   UNL     1     -13.614   0.234  -7.061  0.00  0.00    +0.147 HD
ATOM     14  C   UNL     1     -13.715   0.028  -5.007  0.00  0.00    +0.140 C 
ATOM     15  C   UNL     1     -14.715  -0.597  -4.087  0.00  0.00    +0.015 A 
ATOM     16  C   UNL     1     -14.559  -1.904  -3.612  0.00  0.00    +0.009 A 
ENDROOT
BRANCH   3  17
ATOM     17  O   UNL     1     -17.830   0.432  -2.471  0.00  0.00    -0.491 OA
ATOM     18  C   UNL     1     -18.655   0.018  -1.391  0.00  0.00    +0.277 C 
ENDBRANCH   3  17
BRANCH   9  19
ATOM     19  C   UNL     1     -16.769   3.068  -9.449  0.00  0.00    +0.339 C 
ATOM     20  O   UNL     1     -17.774   2.729 -10.058  0.00  0.00    -0.245 OA
BRANCH  19  21
ATOM     21  O   UNL     1     -15.802   3.841 -10.008  0.00  0.00    -0.461 OA
BRANCH  21  22
ATOM     22  C   UNL     1     -16.145   5.143 -10.518  0.00  0.00    +0.229 C 
ATOM     23  C   UNL     1     -16.566   6.013  -9.348  0.00  0.00    +0.048 C 
ENDBRANCH  21  22
ENDBRANCH  19  21
ENDBRANCH   9  19
TORSDOF 4
ENDMDL
MODEL 8
REMARK VINA RESULT:      -5.9     10.659     12.784
REMARK  Name = min_compound930.pdb
REMARK  6 active torsions:
REMARK  status: ('A' for Active; 'I' for Inactive)
REMARK    1  A    between atoms: _3  and  _19
REMARK    2  A    between atoms: _16  and  _18
REMARK    3  A    between atoms: _18  and  _21
REMARK    4  A    between atoms: _19  and  _20
REMARK    5  A    between atoms: _21  and  _22
REMARK    6  A    between atoms: _22  and  _23
REMARK                            x       y       z     vdW  Elec       q    Type
REMARK                         _______ _______ _______ _____ _____    ______ ____
ROOT
ATOM      1  C   UNL     1     -16.587   2.910  -8.512  0.00  0.00    +0.004 A 
ATOM      2  C   UNL     1     -17.095   3.483  -7.343  0.00  0.00    +0.049 A 
ATOM      3  C   UNL     1     -17.427   2.681  -6.247  0.00  0.00    +0.162 A 
ATOM      4  C   UNL     1     -17.228   1.293  -6.338  0.00  0.00    +0.175 A 
ATOM      5  O   UNL     1     -17.642   0.497  -5.293  0.00  0.00    -0.450 OA
ATOM      6  C   UNL     1     -16.700  -0.293  -4.662  0.00  0.00    +0.149 A 
ATOM      7  C   UNL     1     -16.832  -0.301  -3.264  0.00  0.00    +0.049 A 
ATOM      8  C   UNL     1     -15.998  -1.089  -2.473  0.00  0.00    +0.019 A 
ATOM      9  C   UNL     1     -15.019  -1.873  -3.081  0.00  0.00    +0.061 A 
ATOM     10  C   UNL     1     -14.865  -1.843  -4.474  0.00  0.00    +0.041 A 
ATOM     11  C   UNL     1     -15.742  -1.112  -5.296  0.00  0.00    +0.071 A 
ATOM     12  N   UNL     1     -15.513  -1.186  -6.680  0.00  0.00    -0.337 N 
ATOM     13  H   UNL     1     -15.086  -2.063  -6.958  0.00  0.00    +0.147 HD
ATOM     14  C   UNL     1     -16.579  -0.775  -7.575  0.00  0.00    +0.140 C 
ATOM     15  C   UNL     1     -16.742   0.711  -7.515  0.00  0.00    +0.015 A 
ATOM     16  C   UNL     1     -16.410   1.530  -8.599  0.00  0.00    +0.009 A 
ENDROOT
BRANCH   3  17
ATOM     17  O   UNL     1     -17.947   3.144  -5.065  0.00  0.00    -0.491 OA
ATOM     18  C   UNL     1     -17.028   3.629  -4.097  0.00  0.00    +0.277 C 
ENDBRANCH   3  17
BRANCH   9  19
ATOM     19  C   UNL     1     -14.128  -2.698  -2.227  0.00  0.00    +0.339 C 
ATOM     20  O   UNL     1     -13.451  -2.189  -1.345  0.00  0.00    -0.245 OA
BRANCH  19  21
ATOM     21  O   UNL     1     -14.075  -4.024  -2.516  0.00  0.00    -0.461 OA
BRANCH  21  22
ATOM     22  C   UNL     1     -13.489  -4.931  -1.564  0.00  0.00    +0.229 C 
ATOM     23  C   UNL     1     -13.692  -6.346  -2.074  0.00  0.00    +0.048 C 
ENDBRANCH  21  22
ENDBRANCH  19  21
ENDBRANCH   9  19
TORSDOF 4
ENDMDL
MODEL 9
REMARK VINA RESULT:      -5.9      2.441      6.938
REMARK  Name = min_compound930.pdb
REMARK  6 active torsions:
REMARK  status: ('A' for Active; 'I' for Inactive)
REMARK    1  A    between atoms: _3  and  _19
REMARK    2  A    between atoms: _16  and  _18
REMARK    3  A    between atoms: _18  and  _21
REMARK    4  A    between atoms: _19  and  _20
REMARK    5  A    between atoms: _21  and  _22
REMARK    6  A    between atoms: _22  and  _23
REMARK                            x       y       z     vdW  Elec       q    Type
REMARK                         _______ _______ _______ _____ _____    ______ ____
ROOT
ATOM      1  C   UNL     1     -10.834   2.755 -16.585  0.00  0.00    +0.004 A 
ATOM      2  C   UNL     1     -10.679   4.090 -16.973  0.00  0.00    +0.049 A 
ATOM      3  C   UNL     1     -11.787   4.937 -17.052  0.00  0.00    +0.162 A 
ATOM      4  C   UNL     1     -13.055   4.428 -16.723  0.00  0.00    +0.175 A 
ATOM      5  O   UNL     1     -14.156   5.239 -16.891  0.00  0.00    -0.450 OA
ATOM      6  C   UNL     1     -14.944   5.505 -15.788  0.00  0.00    +0.149 A 
ATOM      7  C   UNL     1     -15.351   6.847 -15.711  0.00  0.00    +0.049 A 
ATOM      8  C   UNL     1     -16.195   7.280 -14.689  0.00  0.00    +0.019 A 
ATOM      9  C   UNL     1     -16.636   6.365 -13.734  0.00  0.00    +0.061 A 
ATOM     10  C   UNL     1     -16.207   5.033 -13.792  0.00  0.00    +0.041 A 
ATOM     11  C   UNL     1     -15.414   4.560 -14.853  0.00  0.00    +0.071 A 
ATOM     12  N   UNL     1     -15.075   3.197 -14.824  0.00  0.00    -0.337 N 
ATOM     13  H   UNL     1     -15.773   2.631 -14.353  0.00  0.00    +0.147 HD
ATOM     14  C   UNL     1     -14.593   2.583 -16.049  0.00  0.00    +0.140 C 
ATOM     15  C   UNL     1     -13.220   3.087 -16.358  0.00  0.00    +0.015 A 
ATOM     16  C   UNL     1     -12.097   2.256 -16.278  0.00  0.00    +0.009 A 
ENDROOT
BRANCH   3  17
ATOM     17  O   UNL     1     -11.743   6.253 -17.438  0.00  0.00    -0.491 OA
ATOM     18  C   UNL     1     -11.853   6.526 -18.828  0.00  0.00    +0.277 C 
ENDBRANCH   3  17
BRANCH   9  19
ATOM     19  C   UNL     1     -17.525   6.840 -12.644  0.00  0.00    +0.339 C 
ATOM     20  O   UNL     1     -17.950   7.986 -12.630  0.00  0.00    -0.245 OA
BRANCH  19  21
ATOM     21  O   UNL     1     -17.792   5.949 -11.654  0.00  0.00    -0.461 OA
BRANCH  21  22
ATOM     22  C   UNL     1     -17.343   6.227 -10.314  0.00  0.00    +0.229 C 
ATOM     23  C   UNL     1     -16.170   5.314 -10.010  0.00  0.00    +0.048 C 
ENDBRANCH  21  22
ENDBRANCH  19  21
ENDBRANCH   9  19
TORSDOF 4
ENDMDL
