MODEL 1
REMARK VINA RESULT:      -6.7      0.000      0.000
REMARK  Name = min_compound924.pdb
REMARK  6 active torsions:
REMARK  status: ('A' for Active; 'I' for Inactive)
REMARK    1  A    between atoms: _6  and  _7
REMARK    2  A    between atoms: _13  and  _18
REMARK    3  A    between atoms: _14  and  _15
REMARK    4  A    between atoms: _15  and  _16
REMARK    5  A    between atoms: _15  and  _17
REMARK    6  A    between atoms: _18  and  _19
REMARK                            x       y       z     vdW  Elec       q    Type
REMARK                         _______ _______ _______ _____ _____    ______ ____
ROOT
ATOM      1  C   UNL     1     -11.946   2.103 -18.043  0.00  0.00    +0.292 C 
ATOM      2  N   UNL     1     -11.946   3.378 -17.633  0.00  0.00    -0.042 NA
ATOM      3  C   UNL     1     -12.790   4.197 -18.236  0.00  0.00    +0.380 C 
ATOM      4  N   UNL     1     -12.743   5.552 -17.605  0.00  0.00    -0.236 N 
ATOM      5  H   UNL     1     -11.754   5.664 -17.397  0.00  0.00    +0.245 HD
ATOM      6  N   UNL     1     -13.591   3.743 -19.280  0.00  0.00    -0.167 N 
ATOM      7  H   UNL     1     -14.226   4.350 -19.724  0.00  0.00    +0.255 HD
ATOM      8  C   UNL     1     -13.476   2.418 -19.685  0.00  0.00    +0.305 C 
ATOM      9  N   UNL     1     -14.225   1.694 -20.755  0.00  0.00    -0.294 N 
ATOM     10  H   UNL     1     -13.523   1.080 -21.157  0.00  0.00    +0.151 HD
ATOM     11  N   UNL     1     -12.632   1.601 -19.079  0.00  0.00    -0.324 NA
ENDROOT
BRANCH   1  15
ATOM     12  N   UNL     1      -9.625  -0.667 -15.691  0.00  0.00    -0.263 NA
ATOM     13  C   UNL     1     -10.001  -0.950 -16.953  0.00  0.00    +0.111 A 
ATOM     14  C   UNL     1     -10.763  -0.100 -17.741  0.00  0.00    +0.034 A 
ATOM     15  C   UNL     1     -11.180   1.137 -17.223  0.00  0.00    +0.052 A 
ATOM     16  C   UNL     1     -10.788   1.436 -15.908  0.00  0.00    +0.034 A 
ATOM     17  C   UNL     1     -10.024   0.522 -15.198  0.00  0.00    +0.111 A 
ENDBRANCH   1  15
BRANCH   4  18
ATOM     18  C   UNL     1     -13.396   6.548 -18.517  0.00  0.00    +0.130 C 
ATOM     19  C   UNL     1     -12.018   7.245 -18.966  0.00  0.00    +0.045 C 
ATOM     20  C   UNL     1     -14.031   7.434 -17.330  0.00  0.00    +0.045 C 
ENDBRANCH   4  18
BRANCH   9  21
ATOM     21  C   UNL     1     -14.877   2.690 -21.668  0.00  0.00    +0.103 C 
ATOM     22  C   UNL     1     -13.898   2.396 -22.900  0.00  0.00    +0.024 C 
ENDBRANCH   9  21
TORSDOF 3
ENDMDL
MODEL 2
REMARK VINA RESULT:      -6.4      2.376      3.609
REMARK  Name = min_compound924.pdb
REMARK  6 active torsions:
REMARK  status: ('A' for Active; 'I' for Inactive)
REMARK    1  A    between atoms: _6  and  _7
REMARK    2  A    between atoms: _13  and  _18
REMARK    3  A    between atoms: _14  and  _15
REMARK    4  A    between atoms: _15  and  _16
REMARK    5  A    between atoms: _15  and  _17
REMARK    6  A    between atoms: _18  and  _19
REMARK                            x       y       z     vdW  Elec       q    Type
REMARK                         _______ _______ _______ _____ _____    ______ ____
ROOT
ATOM      1  C   UNL     1     -12.128   2.635 -16.829  0.00  0.00    +0.292 C 
ATOM      2  N   UNL     1     -12.920   2.800 -15.762  0.00  0.00    -0.042 NA
ATOM      3  C   UNL     1     -13.771   3.811 -15.803  0.00  0.00    +0.380 C 
ATOM      4  N   UNL     1     -14.648   3.804 -14.592  0.00  0.00    -0.236 N 
ATOM      5  H   UNL     1     -14.007   3.514 -13.857  0.00  0.00    +0.245 HD
ATOM      6  N   UNL     1     -13.784   4.680 -16.890  0.00  0.00    -0.167 N 
ATOM      7  H   UNL     1     -14.422   5.428 -16.926  0.00  0.00    +0.255 HD
ATOM      8  C   UNL     1     -12.878   4.472 -17.924  0.00  0.00    +0.305 C 
ATOM      9  N   UNL     1     -12.705   5.243 -19.191  0.00  0.00    -0.294 N 
ATOM     10  H   UNL     1     -11.699   5.239 -19.332  0.00  0.00    +0.151 HD
ATOM     11  N   UNL     1     -12.030   3.459 -17.881  0.00  0.00    -0.324 NA
ENDROOT
BRANCH   1  15
ATOM     12  N   UNL     1      -9.810  -1.000 -16.916  0.00  0.00    -0.263 NA
ATOM     13  C   UNL     1      -9.309   0.172 -17.353  0.00  0.00    +0.111 A 
ATOM     14  C   UNL     1     -10.022   1.361 -17.362  0.00  0.00    +0.034 A 
ATOM     15  C   UNL     1     -11.345   1.380 -16.892  0.00  0.00    +0.052 A 
ATOM     16  C   UNL     1     -11.870   0.161 -16.435  0.00  0.00    +0.034 A 
ATOM     17  C   UNL     1     -11.080  -0.978 -16.463  0.00  0.00    +0.111 A 
ENDBRANCH   1  15
BRANCH   4  18
ATOM     18  C   UNL     1     -15.323   5.138 -14.460  0.00  0.00    +0.130 C 
ATOM     19  C   UNL     1     -15.208   5.191 -12.857  0.00  0.00    +0.045 C 
ATOM     20  C   UNL     1     -16.794   4.589 -14.829  0.00  0.00    +0.045 C 
ENDBRANCH   4  18
BRANCH   9  21
ATOM     21  C   UNL     1     -13.380   6.576 -19.059  0.00  0.00    +0.103 C 
ATOM     22  C   UNL     1     -12.059   7.342 -18.575  0.00  0.00    +0.024 C 
ENDBRANCH   9  21
TORSDOF 3
ENDMDL
MODEL 3
REMARK VINA RESULT:      -6.3      3.264      5.529
REMARK  Name = min_compound924.pdb
REMARK  6 active torsions:
REMARK  status: ('A' for Active; 'I' for Inactive)
REMARK    1  A    between atoms: _6  and  _7
REMARK    2  A    between atoms: _13  and  _18
REMARK    3  A    between atoms: _14  and  _15
REMARK    4  A    between atoms: _15  and  _16
REMARK    5  A    between atoms: _15  and  _17
REMARK    6  A    between atoms: _18  and  _19
REMARK                            x       y       z     vdW  Elec       q    Type
REMARK                         _______ _______ _______ _____ _____    ______ ____
ROOT
ATOM      1  C   UNL     1     -14.035   2.810 -16.301  0.00  0.00    +0.292 C 
ATOM      2  N   UNL     1     -14.511   2.953 -17.545  0.00  0.00    -0.042 NA
ATOM      3  C   UNL     1     -13.766   2.473 -18.526  0.00  0.00    +0.380 C 
ATOM      4  N   UNL     1     -14.473   2.617 -19.836  0.00  0.00    -0.236 N 
ATOM      5  H   UNL     1     -14.932   3.520 -19.741  0.00  0.00    +0.245 HD
ATOM      6  N   UNL     1     -12.527   1.901 -18.257  0.00  0.00    -0.167 N 
ATOM      7  H   UNL     1     -11.975   1.535 -18.986  0.00  0.00    +0.255 HD
ATOM      8  C   UNL     1     -12.081   1.856 -16.941  0.00  0.00    +0.305 C 
ATOM      9  N   UNL     1     -10.813   1.286 -16.397  0.00  0.00    -0.294 N 
ATOM     10  H   UNL     1     -10.564   1.935 -15.655  0.00  0.00    +0.151 HD
ATOM     11  N   UNL     1     -12.829   2.335 -15.962  0.00  0.00    -0.324 NA
ENDROOT
BRANCH   1  15
ATOM     12  N   UNL     1     -16.676   3.680 -13.006  0.00  0.00    -0.263 NA
ATOM     13  C   UNL     1     -16.922   2.672 -13.865  0.00  0.00    +0.111 A 
ATOM     14  C   UNL     1     -16.113   2.367 -14.949  0.00  0.00    +0.034 A 
ATOM     15  C   UNL     1     -14.960   3.132 -15.191  0.00  0.00    +0.052 A 
ATOM     16  C   UNL     1     -14.700   4.182 -14.297  0.00  0.00    +0.034 A 
ATOM     17  C   UNL     1     -15.567   4.411 -13.239  0.00  0.00    +0.111 A 
ENDBRANCH   1  15
BRANCH   4  18
ATOM     18  C   UNL     1     -13.490   2.434 -20.954  0.00  0.00    +0.130 C 
ATOM     19  C   UNL     1     -13.654   3.928 -21.527  0.00  0.00    +0.045 C 
ATOM     20  C   UNL     1     -14.441   1.466 -21.823  0.00  0.00    +0.045 C 
ENDBRANCH   4  18
BRANCH   9  21
ATOM     21  C   UNL     1      -9.829   1.103 -17.515  0.00  0.00    +0.103 C 
ATOM     22  C   UNL     1      -9.626  -0.463 -17.253  0.00  0.00    +0.024 C 
ENDBRANCH   9  21
TORSDOF 3
ENDMDL
MODEL 4
REMARK VINA RESULT:      -6.1      2.174      3.805
REMARK  Name = min_compound924.pdb
REMARK  6 active torsions:
REMARK  status: ('A' for Active; 'I' for Inactive)
REMARK    1  A    between atoms: _6  and  _7
REMARK    2  A    between atoms: _13  and  _18
REMARK    3  A    between atoms: _14  and  _15
REMARK    4  A    between atoms: _15  and  _16
REMARK    5  A    between atoms: _15  and  _17
REMARK    6  A    between atoms: _18  and  _19
REMARK                            x       y       z     vdW  Elec       q    Type
REMARK                         _______ _______ _______ _____ _____    ______ ____
ROOT
ATOM      1  C   UNL     1     -12.230   2.437 -16.933  0.00  0.00    +0.292 C 
ATOM      2  N   UNL     1     -12.129   3.249 -17.993  0.00  0.00    -0.042 NA
ATOM      3  C   UNL     1     -12.742   4.417 -17.908  0.00  0.00    +0.380 C 
ATOM      4  N   UNL     1     -12.455   5.247 -19.119  0.00  0.00    -0.236 N 
ATOM      5  H   UNL     1     -12.457   4.555 -19.865  0.00  0.00    +0.245 HD
ATOM      6  N   UNL     1     -13.496   4.739 -16.784  0.00  0.00    -0.167 N 
ATOM      7  H   UNL     1     -13.946   5.612 -16.716  0.00  0.00    +0.255 HD
ATOM      8  C   UNL     1     -13.603   3.806 -15.759  0.00  0.00    +0.305 C 
ATOM      9  N   UNL     1     -14.330   3.916 -14.460  0.00  0.00    -0.294 N 
ATOM     10  H   UNL     1     -14.699   2.981 -14.318  0.00  0.00    +0.151 HD
ATOM     11  N   UNL     1     -12.987   2.640 -15.846  0.00  0.00    -0.324 NA
ENDROOT
BRANCH   1  15
ATOM     12  N   UNL     1      -9.666  -1.027 -16.815  0.00  0.00    -0.263 NA
ATOM     13  C   UNL     1      -9.246   0.150 -17.319  0.00  0.00    +0.111 A 
ATOM     14  C   UNL     1     -10.040   1.284 -17.396  0.00  0.00    +0.034 A 
ATOM     15  C   UNL     1     -11.362   1.238 -16.925  0.00  0.00    +0.052 A 
ATOM     16  C   UNL     1     -11.802   0.014 -16.397  0.00  0.00    +0.034 A 
ATOM     17  C   UNL     1     -10.935  -1.067 -16.361  0.00  0.00    +0.111 A 
ENDBRANCH   1  15
BRANCH   4  18
ATOM     18  C   UNL     1     -13.439   6.376 -19.193  0.00  0.00    +0.130 C 
ATOM     19  C   UNL     1     -13.333   6.546 -20.789  0.00  0.00    +0.045 C 
ATOM     20  C   UNL     1     -12.459   7.463 -18.517  0.00  0.00    +0.045 C 
ENDBRANCH   4  18
BRANCH   9  21
ATOM     21  C   UNL     1     -15.314   5.046 -14.533  0.00  0.00    +0.103 C 
ATOM     22  C   UNL     1     -15.309   5.325 -12.956  0.00  0.00    +0.024 C 
ENDBRANCH   9  21
TORSDOF 3
ENDMDL
MODEL 5
REMARK VINA RESULT:      -6.1      3.501      5.183
REMARK  Name = min_compound924.pdb
REMARK  6 active torsions:
REMARK  status: ('A' for Active; 'I' for Inactive)
REMARK    1  A    between atoms: _6  and  _7
REMARK    2  A    between atoms: _13  and  _18
REMARK    3  A    between atoms: _14  and  _15
REMARK    4  A    between atoms: _15  and  _16
REMARK    5  A    between atoms: _15  and  _17
REMARK    6  A    between atoms: _18  and  _19
REMARK                            x       y       z     vdW  Elec       q    Type
REMARK                         _______ _______ _______ _____ _____    ______ ____
ROOT
ATOM      1  C   UNL     1     -13.866   3.680 -15.575  0.00  0.00    +0.292 C 
ATOM      2  N   UNL     1     -13.958   4.649 -16.495  0.00  0.00    -0.042 NA
ATOM      3  C   UNL     1     -13.132   4.573 -17.525  0.00  0.00    +0.380 C 
ATOM      4  N   UNL     1     -13.423   5.661 -18.508  0.00  0.00    -0.236 N 
ATOM      5  H   UNL     1     -13.651   6.448 -17.906  0.00  0.00    +0.245 HD
ATOM      6  N   UNL     1     -12.184   3.557 -17.596  0.00  0.00    -0.167 N 
ATOM      7  H   UNL     1     -11.574   3.494 -18.366  0.00  0.00    +0.255 HD
ATOM      8  C   UNL     1     -12.114   2.631 -16.560  0.00  0.00    +0.305 C 
ATOM      9  N   UNL     1     -11.208   1.454 -16.411  0.00  0.00    -0.294 N 
ATOM     10  H   UNL     1     -11.004   1.440 -15.416  0.00  0.00    +0.151 HD
ATOM     11  N   UNL     1     -12.943   2.709 -15.534  0.00  0.00    -0.324 NA
ENDROOT
BRANCH   1  15
ATOM     12  N   UNL     1     -16.921   3.453 -12.542  0.00  0.00    -0.263 NA
ATOM     13  C   UNL     1     -16.949   2.669 -13.636  0.00  0.00    +0.111 A 
ATOM     14  C   UNL     1     -16.001   2.719 -14.647  0.00  0.00    +0.034 A 
ATOM     15  C   UNL     1     -14.934   3.627 -14.551  0.00  0.00    +0.052 A 
ATOM     16  C   UNL     1     -14.901   4.445 -13.411  0.00  0.00    +0.034 A 
ATOM     17  C   UNL     1     -15.894   4.322 -12.452  0.00  0.00    +0.111 A 
ENDBRANCH   1  15
BRANCH   4  18
ATOM     18  C   UNL     1     -12.264   5.801 -19.451  0.00  0.00    +0.130 C 
ATOM     19  C   UNL     1     -11.784   7.221 -18.868  0.00  0.00    +0.045 C 
ATOM     20  C   UNL     1     -13.173   6.086 -20.752  0.00  0.00    +0.045 C 
ENDBRANCH   4  18
BRANCH   9  21
ATOM     21  C   UNL     1     -10.050   1.594 -17.354  0.00  0.00    +0.103 C 
ATOM     22  C   UNL     1      -9.550   0.084 -17.169  0.00  0.00    +0.024 C 
ENDBRANCH   9  21
TORSDOF 3
ENDMDL
MODEL 6
REMARK VINA RESULT:      -6.1      1.041      3.887
REMARK  Name = min_compound924.pdb
REMARK  6 active torsions:
REMARK  status: ('A' for Active; 'I' for Inactive)
REMARK    1  A    between atoms: _6  and  _7
REMARK    2  A    between atoms: _13  and  _18
REMARK    3  A    between atoms: _14  and  _15
REMARK    4  A    between atoms: _15  and  _16
REMARK    5  A    between atoms: _15  and  _17
REMARK    6  A    between atoms: _18  and  _19
REMARK                            x       y       z     vdW  Elec       q    Type
REMARK                         _______ _______ _______ _____ _____    ______ ____
ROOT
ATOM      1  C   UNL     1     -12.340   1.982 -18.015  0.00  0.00    +0.292 C 
ATOM      2  N   UNL     1     -12.814   1.698 -19.235  0.00  0.00    -0.042 NA
ATOM      3  C   UNL     1     -13.470   2.663 -19.858  0.00  0.00    +0.380 C 
ATOM      4  N   UNL     1     -13.846   2.230 -21.239  0.00  0.00    -0.236 N 
ATOM      5  H   UNL     1     -14.088   1.251 -21.105  0.00  0.00    +0.245 HD
ATOM      6  N   UNL     1     -13.691   3.885 -19.232  0.00  0.00    -0.167 N 
ATOM      7  H   UNL     1     -14.171   4.607 -19.698  0.00  0.00    +0.255 HD
ATOM      8  C   UNL     1     -13.222   4.069 -17.936  0.00  0.00    +0.305 C 
ATOM      9  N   UNL     1     -13.315   5.278 -17.065  0.00  0.00    -0.294 N 
ATOM     10  H   UNL     1     -13.466   4.888 -16.139  0.00  0.00    +0.151 HD
ATOM     11  N   UNL     1     -12.565   3.103 -17.317  0.00  0.00    -0.324 NA
ENDROOT
BRANCH   1  15
ATOM     12  N   UNL     1      -9.648  -0.944 -16.348  0.00  0.00    -0.263 NA
ATOM     13  C   UNL     1     -10.981  -1.022 -16.168  0.00  0.00    +0.111 A 
ATOM     14  C   UNL     1     -11.883  -0.096 -16.668  0.00  0.00    +0.034 A 
ATOM     15  C   UNL     1     -11.413   0.998 -17.413  0.00  0.00    +0.052 A 
ATOM     16  C   UNL     1     -10.025   1.082 -17.604  0.00  0.00    +0.034 A 
ATOM     17  C   UNL     1      -9.200   0.106 -17.066  0.00  0.00    +0.111 A 
ENDBRANCH   1  15
BRANCH   4  18
ATOM     18  C   UNL     1     -14.897   3.154 -21.780  0.00  0.00    +0.130 C 
ATOM     19  C   UNL     1     -15.683   2.008 -22.590  0.00  0.00    +0.045 C 
ATOM     20  C   UNL     1     -13.911   3.899 -22.815  0.00  0.00    +0.045 C 
ENDBRANCH   4  18
BRANCH   9  21
ATOM     21  C   UNL     1     -14.366   6.202 -17.606  0.00  0.00    +0.103 C 
ATOM     22  C   UNL     1     -13.328   7.348 -18.023  0.00  0.00    +0.024 C 
ENDBRANCH   9  21
TORSDOF 3
ENDMDL
MODEL 7
REMARK VINA RESULT:      -5.9      2.310      5.715
REMARK  Name = min_compound924.pdb
REMARK  6 active torsions:
REMARK  status: ('A' for Active; 'I' for Inactive)
REMARK    1  A    between atoms: _6  and  _7
REMARK    2  A    between atoms: _13  and  _18
REMARK    3  A    between atoms: _14  and  _15
REMARK    4  A    between atoms: _15  and  _16
REMARK    5  A    between atoms: _15  and  _17
REMARK    6  A    between atoms: _18  and  _19
REMARK                            x       y       z     vdW  Elec       q    Type
REMARK                         _______ _______ _______ _____ _____    ______ ____
ROOT
ATOM      1  C   UNL     1     -13.589   2.293 -19.196  0.00  0.00    +0.292 C 
ATOM      2  N   UNL     1     -14.429   2.908 -18.354  0.00  0.00    -0.042 NA
ATOM      3  C   UNL     1     -14.062   2.969 -17.085  0.00  0.00    +0.380 C 
ATOM      4  N   UNL     1     -15.047   3.768 -16.295  0.00  0.00    -0.236 N 
ATOM      5  H   UNL     1     -15.935   3.496 -16.710  0.00  0.00    +0.245 HD
ATOM      6  N   UNL     1     -12.881   2.365 -16.662  0.00  0.00    -0.167 N 
ATOM      7  H   UNL     1     -12.602   2.417 -15.720  0.00  0.00    +0.255 HD
ATOM      8  C   UNL     1     -12.103   1.687 -17.595  0.00  0.00    +0.305 C 
ATOM      9  N   UNL     1     -10.803   0.981 -17.398  0.00  0.00    -0.294 N 
ATOM     10  H   UNL     1     -10.880   0.174 -18.010  0.00  0.00    +0.151 HD
ATOM     11  N   UNL     1     -12.472   1.631 -18.862  0.00  0.00    -0.324 NA
ENDROOT
BRANCH   1  15
ATOM     12  N   UNL     1     -14.485   2.588 -23.403  0.00  0.00    -0.263 NA
ATOM     13  C   UNL     1     -13.411   1.911 -22.952  0.00  0.00    +0.111 A 
ATOM     14  C   UNL     1     -13.072   1.805 -21.612  0.00  0.00    +0.034 A 
ATOM     15  C   UNL     1     -13.877   2.424 -20.642  0.00  0.00    +0.052 A 
ATOM     16  C   UNL     1     -14.997   3.130 -21.109  0.00  0.00    +0.034 A 
ATOM     17  C   UNL     1     -15.257   3.180 -22.470  0.00  0.00    +0.111 A 
ENDBRANCH   1  15
BRANCH   4  18
ATOM     18  C   UNL     1     -14.837   3.509 -14.832  0.00  0.00    +0.130 C 
ATOM     19  C   UNL     1     -16.049   2.459 -14.704  0.00  0.00    +0.045 C 
ATOM     20  C   UNL     1     -15.382   4.949 -14.353  0.00  0.00    +0.045 C 
ENDBRANCH   4  18
BRANCH   9  21
ATOM     21  C   UNL     1     -10.593   0.722 -15.935  0.00  0.00    +0.103 C 
ATOM     22  C   UNL     1      -9.645  -0.549 -16.164  0.00  0.00    +0.024 C 
ENDBRANCH   9  21
TORSDOF 3
ENDMDL
MODEL 8
REMARK VINA RESULT:      -5.8      9.834     11.901
REMARK  Name = min_compound924.pdb
REMARK  6 active torsions:
REMARK  status: ('A' for Active; 'I' for Inactive)
REMARK    1  A    between atoms: _6  and  _7
REMARK    2  A    between atoms: _13  and  _18
REMARK    3  A    between atoms: _14  and  _15
REMARK    4  A    between atoms: _15  and  _16
REMARK    5  A    between atoms: _15  and  _17
REMARK    6  A    between atoms: _18  and  _19
REMARK                            x       y       z     vdW  Elec       q    Type
REMARK                         _______ _______ _______ _____ _____    ______ ____
ROOT
ATOM      1  C   UNL     1     -16.811   2.832  -9.551  0.00  0.00    +0.292 C 
ATOM      2  N   UNL     1     -15.798   2.462  -8.757  0.00  0.00    -0.042 NA
ATOM      3  C   UNL     1     -16.091   1.644  -7.761  0.00  0.00    +0.380 C 
ATOM      4  N   UNL     1     -14.849   1.245  -7.030  0.00  0.00    -0.236 N 
ATOM      5  H   UNL     1     -14.304   2.104  -7.036  0.00  0.00    +0.245 HD
ATOM      6  N   UNL     1     -17.406   1.245  -7.538  0.00  0.00    -0.167 N 
ATOM      7  H   UNL     1     -17.624   0.629  -6.802  0.00  0.00    +0.255 HD
ATOM      8  C   UNL     1     -18.405   1.734  -8.372  0.00  0.00    +0.305 C 
ATOM      9  N   UNL     1     -19.870   1.447  -8.352  0.00  0.00    -0.294 N 
ATOM     10  H   UNL     1     -20.286   2.341  -8.598  0.00  0.00    +0.151 HD
ATOM     11  N   UNL     1     -18.108   2.550  -9.368  0.00  0.00    -0.324 NA
ENDROOT
BRANCH   1  15
ATOM     12  N   UNL     1     -15.704   4.857 -13.193  0.00  0.00    -0.263 NA
ATOM     13  C   UNL     1     -15.087   5.113 -12.024  0.00  0.00    +0.111 A 
ATOM     14  C   UNL     1     -15.420   4.502 -10.825  0.00  0.00    +0.034 A 
ATOM     15  C   UNL     1     -16.455   3.553 -10.795  0.00  0.00    +0.052 A 
ATOM     16  C   UNL     1     -17.100   3.283 -12.012  0.00  0.00    +0.034 A 
ATOM     17  C   UNL     1     -16.696   3.944 -13.162  0.00  0.00    +0.111 A 
ENDBRANCH   1  15
BRANCH   4  18
ATOM     18  C   UNL     1     -15.222   0.649  -5.705  0.00  0.00    +0.130 C 
ATOM     19  C   UNL     1     -14.034   1.368  -4.892  0.00  0.00    +0.045 C 
ATOM     20  C   UNL     1     -14.731  -0.841  -6.076  0.00  0.00    +0.045 C 
ENDBRANCH   4  18
BRANCH   9  21
ATOM     21  C   UNL     1     -20.243   0.852  -7.027  0.00  0.00    +0.103 C 
ATOM     22  C   UNL     1     -20.937  -0.446  -7.659  0.00  0.00    +0.024 C 
ENDBRANCH   9  21
TORSDOF 3
ENDMDL
MODEL 9
REMARK VINA RESULT:      -5.8      4.057      6.153
REMARK  Name = min_compound924.pdb
REMARK  6 active torsions:
REMARK  status: ('A' for Active; 'I' for Inactive)
REMARK    1  A    between atoms: _6  and  _7
REMARK    2  A    between atoms: _13  and  _18
REMARK    3  A    between atoms: _14  and  _15
REMARK    4  A    between atoms: _15  and  _16
REMARK    5  A    between atoms: _15  and  _17
REMARK    6  A    between atoms: _18  and  _19
REMARK                            x       y       z     vdW  Elec       q    Type
REMARK                         _______ _______ _______ _____ _____    ______ ____
ROOT
ATOM      1  C   UNL     1     -14.663   4.003 -14.912  0.00  0.00    +0.292 C 
ATOM      2  N   UNL     1     -13.871   2.947 -15.137  0.00  0.00    -0.042 NA
ATOM      3  C   UNL     1     -13.052   3.025 -16.172  0.00  0.00    +0.380 C 
ATOM      4  N   UNL     1     -12.168   1.821 -16.231  0.00  0.00    -0.236 N 
ATOM      5  H   UNL     1     -12.796   1.073 -15.945  0.00  0.00    +0.245 HD
ATOM      6  N   UNL     1     -13.072   4.140 -17.005  0.00  0.00    -0.167 N 
ATOM      7  H   UNL     1     -12.457   4.204 -17.771  0.00  0.00    +0.255 HD
ATOM      8  C   UNL     1     -13.977   5.162 -16.736  0.00  0.00    +0.305 C 
ATOM      9  N   UNL     1     -14.180   6.451 -17.459  0.00  0.00    -0.294 N 
ATOM     10  H   UNL     1     -15.186   6.586 -17.419  0.00  0.00    +0.151 HD
ATOM     11  N   UNL     1     -14.792   5.080 -15.699  0.00  0.00    -0.324 NA
ENDROOT
BRANCH   1  15
ATOM     12  N   UNL     1     -16.770   3.974 -11.151  0.00  0.00    -0.263 NA
ATOM     13  C   UNL     1     -17.173   3.224 -12.196  0.00  0.00    +0.111 A 
ATOM     14  C   UNL     1     -16.539   3.215 -13.429  0.00  0.00    +0.034 A 
ATOM     15  C   UNL     1     -15.407   4.020 -13.633  0.00  0.00    +0.052 A 
ATOM     16  C   UNL     1     -14.984   4.802 -12.546  0.00  0.00    +0.034 A 
ATOM     17  C   UNL     1     -15.682   4.744 -11.349  0.00  0.00    +0.111 A 
ENDBRANCH   1  15
BRANCH   4  18
ATOM     18  C   UNL     1     -11.535   1.736 -17.588  0.00  0.00    +0.130 C 
ATOM     19  C   UNL     1     -11.408   0.133 -17.581  0.00  0.00    +0.045 C 
ATOM     20  C   UNL     1     -10.116   2.343 -17.121  0.00  0.00    +0.045 C 
ENDBRANCH   4  18
BRANCH   9  21
ATOM     21  C   UNL     1     -13.546   6.367 -18.816  0.00  0.00    +0.103 C 
ATOM     22  C   UNL     1     -12.257   7.226 -18.410  0.00  0.00    +0.024 C 
ENDBRANCH   9  21
TORSDOF 3
ENDMDL
