MODEL 1
REMARK VINA RESULT:      -5.3      0.000      0.000
REMARK  Name = min_compound2.pdb
REMARK  2 active torsions:
REMARK  status: ('A' for Active; 'I' for Inactive)
REMARK    1  A    between atoms: _1  and  _9
REMARK    2  A    between atoms: _2  and  _7
REMARK                            x       y       z     vdW  Elec       q    Type
REMARK                         _______ _______ _______ _____ _____    ______ ____
ROOT
ATOM      1  C   UNL     1     -11.397   1.031 -17.349  0.00  0.00    -0.035 A 
ATOM      2  C   UNL     1     -12.288   1.811 -18.270  0.00  0.00    +0.044 C 
ATOM      3  C   UNL     1     -10.929  -0.245 -17.711  0.00  0.00    +0.024 A 
ATOM      4  C   UNL     1     -10.058  -0.915 -16.864  0.00  0.00    +0.111 A 
ATOM      5  N   UNL     1      -9.614  -0.409 -15.697  0.00  0.00    -0.262 NA
ATOM      6  C   UNL     1     -10.063   0.828 -15.363  0.00  0.00    +0.124 A 
ATOM      7  C   UNL     1     -10.956   1.572 -16.129  0.00  0.00    +0.057 A 
ENDROOT
BRANCH   7   8
ATOM      8  C   UNL     1     -11.344   2.898 -15.600  0.00  0.00    +0.243 C 
ATOM      9  N   UNL     1     -10.361   3.837 -15.454  0.00  0.00    -0.325 N 
ATOM     10  H   UNL     1      -9.453   3.741 -15.885  0.00  0.00    +0.145 HD
ATOM     11  H   UNL     1     -10.666   4.769 -15.201  0.00  0.00    +0.145 HD
ATOM     12  O   UNL     1     -12.511   3.168 -15.347  0.00  0.00    -0.270 OA
ENDBRANCH   7   8
TORSDOF 1
ENDMDL
MODEL 2
REMARK VINA RESULT:      -5.1      2.315      3.786
REMARK  Name = min_compound2.pdb
REMARK  2 active torsions:
REMARK  status: ('A' for Active; 'I' for Inactive)
REMARK    1  A    between atoms: _1  and  _9
REMARK    2  A    between atoms: _2  and  _7
REMARK                            x       y       z     vdW  Elec       q    Type
REMARK                         _______ _______ _______ _____ _____    ______ ____
ROOT
ATOM      1  C   UNL     1     -11.517   3.242 -15.883  0.00  0.00    -0.035 A 
ATOM      2  C   UNL     1     -10.255   4.030 -15.689  0.00  0.00    +0.044 C 
ATOM      3  C   UNL     1     -12.773   3.872 -15.835  0.00  0.00    +0.024 A 
ATOM      4  C   UNL     1     -13.918   3.125 -16.078  0.00  0.00    +0.111 A 
ATOM      5  N   UNL     1     -13.903   1.811 -16.372  0.00  0.00    -0.262 NA
ATOM      6  C   UNL     1     -12.685   1.216 -16.428  0.00  0.00    +0.124 A 
ATOM      7  C   UNL     1     -11.480   1.867 -16.176  0.00  0.00    +0.057 A 
ENDROOT
BRANCH   7   8
ATOM      8  C   UNL     1     -10.249   1.052 -16.270  0.00  0.00    +0.243 C 
ATOM      9  N   UNL     1      -9.629   0.975 -17.486  0.00  0.00    -0.325 N 
ATOM     10  H   UNL     1      -9.845   1.606 -18.244  0.00  0.00    +0.145 HD
ATOM     11  H   UNL     1      -8.730   0.510 -17.501  0.00  0.00    +0.145 HD
ATOM     12  O   UNL     1      -9.768   0.506 -15.286  0.00  0.00    -0.270 OA
ENDBRANCH   7   8
TORSDOF 1
ENDMDL
MODEL 3
REMARK VINA RESULT:      -5.1      1.157      1.157
REMARK  Name = min_compound2.pdb
REMARK  2 active torsions:
REMARK  status: ('A' for Active; 'I' for Inactive)
REMARK    1  A    between atoms: _1  and  _9
REMARK    2  A    between atoms: _2  and  _7
REMARK                            x       y       z     vdW  Elec       q    Type
REMARK                         _______ _______ _______ _____ _____    ______ ____
ROOT
ATOM      1  C   UNL     1     -11.607   1.146 -17.461  0.00  0.00    -0.035 A 
ATOM      2  C   UNL     1     -12.499   1.672 -18.547  0.00  0.00    +0.044 C 
ATOM      3  C   UNL     1     -11.037  -0.136 -17.555  0.00  0.00    +0.024 A 
ATOM      4  C   UNL     1     -10.168  -0.568 -16.564  0.00  0.00    +0.111 A 
ATOM      5  N   UNL     1      -9.819   0.179 -15.499  0.00  0.00    -0.262 NA
ATOM      6  C   UNL     1     -10.365   1.420 -15.424  0.00  0.00    +0.124 A 
ATOM      7  C   UNL     1     -11.265   1.938 -16.351  0.00  0.00    +0.057 A 
ENDROOT
BRANCH   7   8
ATOM      8  C   UNL     1     -11.767   3.308 -16.099  0.00  0.00    +0.243 C 
ATOM      9  N   UNL     1     -12.929   3.438 -15.392  0.00  0.00    -0.325 N 
ATOM     10  H   UNL     1     -13.329   2.677 -14.862  0.00  0.00    +0.145 HD
ATOM     11  H   UNL     1     -13.192   4.381 -15.133  0.00  0.00    +0.145 HD
ATOM     12  O   UNL     1     -11.142   4.294 -16.464  0.00  0.00    -0.270 OA
ENDBRANCH   7   8
TORSDOF 1
ENDMDL
MODEL 4
REMARK VINA RESULT:      -5.0      1.998      2.622
REMARK  Name = min_compound2.pdb
REMARK  2 active torsions:
REMARK  status: ('A' for Active; 'I' for Inactive)
REMARK    1  A    between atoms: _1  and  _9
REMARK    2  A    between atoms: _2  and  _7
REMARK                            x       y       z     vdW  Elec       q    Type
REMARK                         _______ _______ _______ _____ _____    ______ ____
ROOT
ATOM      1  C   UNL     1     -11.022   1.802 -15.933  0.00  0.00    -0.035 A 
ATOM      2  C   UNL     1     -10.885   3.265 -15.629  0.00  0.00    +0.044 C 
ATOM      3  C   UNL     1     -10.012   0.894 -15.567  0.00  0.00    +0.024 A 
ATOM      4  C   UNL     1     -10.196  -0.461 -15.808  0.00  0.00    +0.111 A 
ATOM      5  N   UNL     1     -11.306  -0.974 -16.373  0.00  0.00    -0.262 NA
ATOM      6  C   UNL     1     -12.279  -0.090 -16.711  0.00  0.00    +0.124 A 
ATOM      7  C   UNL     1     -12.183   1.288 -16.535  0.00  0.00    +0.057 A 
ENDROOT
BRANCH   7   8
ATOM      8  C   UNL     1     -13.340   2.098 -16.975  0.00  0.00    +0.243 C 
ATOM      9  N   UNL     1     -14.374   2.260 -16.096  0.00  0.00    -0.325 N 
ATOM     10  H   UNL     1     -14.288   2.043 -15.113  0.00  0.00    +0.145 HD
ATOM     11  H   UNL     1     -15.100   2.910 -16.373  0.00  0.00    +0.145 HD
ATOM     12  O   UNL     1     -13.355   2.650 -18.068  0.00  0.00    -0.270 OA
ENDBRANCH   7   8
TORSDOF 1
ENDMDL
MODEL 5
REMARK VINA RESULT:      -4.8     11.914     12.581
REMARK  Name = min_compound2.pdb
REMARK  2 active torsions:
REMARK  status: ('A' for Active; 'I' for Inactive)
REMARK    1  A    between atoms: _1  and  _9
REMARK    2  A    between atoms: _2  and  _7
REMARK                            x       y       z     vdW  Elec       q    Type
REMARK                         _______ _______ _______ _____ _____    ______ ____
ROOT
ATOM      1  C   UNL     1     -14.417   0.309  -5.455  0.00  0.00    -0.035 A 
ATOM      2  C   UNL     1     -14.244   1.135  -6.695  0.00  0.00    +0.044 C 
ATOM      3  C   UNL     1     -14.507  -1.093  -5.531  0.00  0.00    +0.024 A 
ATOM      4  C   UNL     1     -14.606  -1.832  -4.360  0.00  0.00    +0.111 A 
ATOM      5  N   UNL     1     -14.613  -1.284  -3.130  0.00  0.00    -0.262 NA
ATOM      6  C   UNL     1     -14.513   0.068  -3.068  0.00  0.00    +0.124 A 
ATOM      7  C   UNL     1     -14.435   0.901  -4.180  0.00  0.00    +0.057 A 
ENDROOT
BRANCH   7   8
ATOM      8  C   UNL     1     -14.345   2.356  -3.919  0.00  0.00    +0.243 C 
ATOM      9  N   UNL     1     -15.510   3.070  -3.898  0.00  0.00    -0.325 N 
ATOM     10  H   UNL     1     -16.416   2.627  -3.835  0.00  0.00    +0.145 HD
ATOM     11  H   UNL     1     -15.437   4.036  -3.605  0.00  0.00    +0.145 HD
ATOM     12  O   UNL     1     -13.274   2.896  -3.680  0.00  0.00    -0.270 OA
ENDBRANCH   7   8
TORSDOF 1
ENDMDL
MODEL 6
REMARK VINA RESULT:      -4.8     11.586     12.455
REMARK  Name = min_compound2.pdb
REMARK  2 active torsions:
REMARK  status: ('A' for Active; 'I' for Inactive)
REMARK    1  A    between atoms: _1  and  _9
REMARK    2  A    between atoms: _2  and  _7
REMARK                            x       y       z     vdW  Elec       q    Type
REMARK                         _______ _______ _______ _____ _____    ______ ____
ROOT
ATOM      1  C   UNL     1     -14.102   0.859  -3.973  0.00  0.00    -0.035 A 
ATOM      2  C   UNL     1     -13.776   2.318  -3.849  0.00  0.00    +0.044 C 
ATOM      3  C   UNL     1     -13.972  -0.005  -2.871  0.00  0.00    +0.024 A 
ATOM      4  C   UNL     1     -14.340  -1.336  -3.003  0.00  0.00    +0.111 A 
ATOM      5  N   UNL     1     -14.833  -1.865  -4.140  0.00  0.00    -0.262 NA
ATOM      6  C   UNL     1     -14.966  -1.020  -5.194  0.00  0.00    +0.124 A 
ATOM      7  C   UNL     1     -14.603   0.324  -5.173  0.00  0.00    +0.057 A 
ENDROOT
BRANCH   7   8
ATOM      8  C   UNL     1     -14.808   1.089  -6.423  0.00  0.00    +0.243 C 
ATOM      9  N   UNL     1     -16.011   1.715  -6.594  0.00  0.00    -0.325 N 
ATOM     10  H   UNL     1     -16.662   1.856  -5.835  0.00  0.00    +0.145 HD
ATOM     11  H   UNL     1     -16.088   2.325  -7.399  0.00  0.00    +0.145 HD
ATOM     12  O   UNL     1     -13.917   1.205  -7.254  0.00  0.00    -0.270 OA
ENDBRANCH   7   8
TORSDOF 1
ENDMDL
MODEL 7
REMARK VINA RESULT:      -4.8      1.957      2.265
REMARK  Name = min_compound2.pdb
REMARK  2 active torsions:
REMARK  status: ('A' for Active; 'I' for Inactive)
REMARK    1  A    between atoms: _1  and  _9
REMARK    2  A    between atoms: _2  and  _7
REMARK                            x       y       z     vdW  Elec       q    Type
REMARK                         _______ _______ _______ _____ _____    ______ ____
ROOT
ATOM      1  C   UNL     1     -10.783   2.189 -17.016  0.00  0.00    -0.035 A 
ATOM      2  C   UNL     1     -10.232   3.584 -16.998  0.00  0.00    +0.044 C 
ATOM      3  C   UNL     1      -9.958   1.093 -17.325  0.00  0.00    +0.024 A 
ATOM      4  C   UNL     1     -10.485  -0.190 -17.274  0.00  0.00    +0.111 A 
ATOM      5  N   UNL     1     -11.759  -0.461 -16.931  0.00  0.00    -0.262 NA
ATOM      6  C   UNL     1     -12.543   0.603 -16.623  0.00  0.00    +0.124 A 
ATOM      7  C   UNL     1     -12.120   1.929 -16.667  0.00  0.00    +0.057 A 
ENDROOT
BRANCH   7   8
ATOM      8  C   UNL     1     -13.120   2.960 -16.310  0.00  0.00    +0.243 C 
ATOM      9  N   UNL     1     -14.008   3.345 -17.275  0.00  0.00    -0.325 N 
ATOM     10  H   UNL     1     -14.148   2.816 -18.124  0.00  0.00    +0.145 HD
ATOM     11  H   UNL     1     -14.752   3.964 -16.976  0.00  0.00    +0.145 HD
ATOM     12  O   UNL     1     -13.187   3.418 -15.177  0.00  0.00    -0.270 OA
ENDBRANCH   7   8
TORSDOF 1
ENDMDL
MODEL 8
REMARK VINA RESULT:      -4.8     12.826     13.418
REMARK  Name = min_compound2.pdb
REMARK  2 active torsions:
REMARK  status: ('A' for Active; 'I' for Inactive)
REMARK    1  A    between atoms: _1  and  _9
REMARK    2  A    between atoms: _2  and  _7
REMARK                            x       y       z     vdW  Elec       q    Type
REMARK                         _______ _______ _______ _____ _____    ______ ____
ROOT
ATOM      1  C   UNL     1     -14.534   1.240  -3.806  0.00  0.00    -0.035 A 
ATOM      2  C   UNL     1     -13.172   1.033  -3.212  0.00  0.00    +0.044 C 
ATOM      3  C   UNL     1     -15.099   2.526  -3.879  0.00  0.00    +0.024 A 
ATOM      4  C   UNL     1     -16.334   2.691  -4.490  0.00  0.00    +0.111 A 
ATOM      5  N   UNL     1     -17.038   1.681  -5.036  0.00  0.00    -0.262 NA
ATOM      6  C   UNL     1     -16.478   0.447  -4.971  0.00  0.00    +0.124 A 
ATOM      7  C   UNL     1     -15.258   0.170  -4.359  0.00  0.00    +0.057 A 
ENDROOT
BRANCH   7   8
ATOM      8  C   UNL     1     -14.810  -1.240  -4.373  0.00  0.00    +0.243 C 
ATOM      9  N   UNL     1     -14.430  -1.774  -5.572  0.00  0.00    -0.325 N 
ATOM     10  H   UNL     1     -14.237  -1.203  -6.383  0.00  0.00    +0.145 HD
ATOM     11  H   UNL     1     -14.020  -2.700  -5.540  0.00  0.00    +0.145 HD
ATOM     12  O   UNL     1     -14.733  -1.896  -3.342  0.00  0.00    -0.270 OA
ENDBRANCH   7   8
TORSDOF 1
ENDMDL
MODEL 9
REMARK VINA RESULT:      -4.7      1.747      3.417
REMARK  Name = min_compound2.pdb
REMARK  2 active torsions:
REMARK  status: ('A' for Active; 'I' for Inactive)
REMARK    1  A    between atoms: _1  and  _9
REMARK    2  A    between atoms: _2  and  _7
REMARK                            x       y       z     vdW  Elec       q    Type
REMARK                         _______ _______ _______ _____ _____    ______ ____
ROOT
ATOM      1  C   UNL     1     -12.070   2.407 -17.792  0.00  0.00    -0.035 A 
ATOM      2  C   UNL     1     -12.884   1.925 -18.956  0.00  0.00    +0.044 C 
ATOM      3  C   UNL     1     -11.928   3.782 -17.533  0.00  0.00    +0.024 A 
ATOM      4  C   UNL     1     -11.219   4.193 -16.413  0.00  0.00    +0.111 A 
ATOM      5  N   UNL     1     -10.655   3.343 -15.533  0.00  0.00    -0.262 NA
ATOM      6  C   UNL     1     -10.809   2.018 -15.785  0.00  0.00    +0.124 A 
ATOM      7  C   UNL     1     -11.479   1.503 -16.892  0.00  0.00    +0.057 A 
ENDROOT
BRANCH   7   8
ATOM      8  C   UNL     1     -11.536   0.029 -17.010  0.00  0.00    +0.243 C 
ATOM      9  N   UNL     1     -10.468  -0.604 -17.584  0.00  0.00    -0.325 N 
ATOM     10  H   UNL     1      -9.579  -0.147 -17.724  0.00  0.00    +0.145 HD
ATOM     11  H   UNL     1     -10.477  -1.616 -17.550  0.00  0.00    +0.145 HD
ATOM     12  O   UNL     1     -12.479  -0.612 -16.565  0.00  0.00    -0.270 OA
ENDBRANCH   7   8
TORSDOF 1
ENDMDL
