MODEL 1
REMARK VINA RESULT:      -6.9      0.000      0.000
REMARK  Name = min_compound946.pdb
REMARK  4 active torsions:
REMARK  status: ('A' for Active; 'I' for Inactive)
REMARK    1  A    between atoms: _1  and  _3
REMARK    2  A    between atoms: _1  and  _20
REMARK    3  A    between atoms: _2  and  _4
REMARK    4  A    between atoms: _2  and  _21
REMARK                            x       y       z     vdW  Elec       q    Type
REMARK                         _______ _______ _______ _____ _____    ______ ____
ROOT
ATOM      1  C   UNL     1     -14.930  -3.764  -2.300  0.00  0.00    +0.162 A 
ATOM      2  C   UNL     1     -16.303  -4.026  -2.302  0.00  0.00    +0.162 A 
ATOM      3  C   UNL     1     -17.192  -3.013  -2.651  0.00  0.00    +0.063 A 
ATOM      4  C   UNL     1     -16.715  -1.725  -2.935  0.00  0.00    +0.051 A 
ATOM      5  C   UNL     1     -17.718  -0.659  -3.285  0.00  0.00    +0.260 A 
ATOM      6  O   UNL     1     -18.917  -0.910  -3.328  0.00  0.00    -0.267 OA
ATOM      7  N   UNL     1     -17.201   0.587  -3.544  0.00  0.00    -0.307 N 
ATOM      8  C   UNL     1     -17.945   1.792  -3.903  0.00  0.00    +0.130 C 
ATOM      9  C   UNL     1     -16.898   2.917  -4.084  0.00  0.00    +0.059 C 
ATOM     10  C   UNL     1     -15.608   2.207  -3.801  0.00  0.00    -0.022 A 
ATOM     11  C   UNL     1     -14.313   2.679  -3.804  0.00  0.00    +0.006 A 
ATOM     12  C   UNL     1     -13.286   1.777  -3.495  0.00  0.00    +0.001 A 
ATOM     13  C   UNL     1     -13.561   0.424  -3.187  0.00  0.00    +0.010 A 
ATOM     14  C   UNL     1     -14.874  -0.060  -3.183  0.00  0.00    +0.007 A 
ATOM     15  C   UNL     1     -15.846   0.875  -3.496  0.00  0.00    +0.056 A 
ATOM     16  C   UNL     1     -15.327  -1.430  -2.886  0.00  0.00    +0.000 A 
ATOM     17  C   UNL     1     -14.448  -2.475  -2.560  0.00  0.00    +0.058 A 
ENDROOT
BRANCH   1  18
ATOM     18  O   UNL     1     -14.003  -4.732  -2.012  0.00  0.00    -0.491 OA
ATOM     19  C   UNL     1     -12.952  -4.178  -1.217  0.00  0.00    +0.277 C 
ENDBRANCH   1  18
BRANCH   2  20
ATOM     20  O   UNL     1     -16.863  -5.247  -2.038  0.00  0.00    -0.491 OA
ATOM     21  C   UNL     1     -17.206  -5.426  -0.665  0.00  0.00    +0.277 C 
ENDBRANCH   2  20
TORSDOF 2
ENDMDL
MODEL 2
REMARK VINA RESULT:      -6.5     14.141     16.196
REMARK  Name = min_compound946.pdb
REMARK  4 active torsions:
REMARK  status: ('A' for Active; 'I' for Inactive)
REMARK    1  A    between atoms: _1  and  _3
REMARK    2  A    between atoms: _1  and  _20
REMARK    3  A    between atoms: _2  and  _4
REMARK    4  A    between atoms: _2  and  _21
REMARK                            x       y       z     vdW  Elec       q    Type
REMARK                         _______ _______ _______ _____ _____    ______ ____
ROOT
ATOM      1  C   UNL     1     -12.259   6.029 -17.669  0.00  0.00    +0.162 A 
ATOM      2  C   UNL     1     -13.619   6.042 -17.348  0.00  0.00    +0.162 A 
ATOM      3  C   UNL     1     -14.230   4.868 -16.915  0.00  0.00    +0.063 A 
ATOM      4  C   UNL     1     -13.500   3.672 -16.863  0.00  0.00    +0.051 A 
ATOM      5  C   UNL     1     -14.211   2.426 -16.409  0.00  0.00    +0.260 A 
ATOM      6  O   UNL     1     -15.394   2.456 -16.086  0.00  0.00    -0.267 OA
ATOM      7  N   UNL     1     -13.455   1.280 -16.385  0.00  0.00    -0.307 N 
ATOM      8  C   UNL     1     -13.894  -0.056 -15.992  0.00  0.00    +0.130 C 
ATOM      9  C   UNL     1     -12.665  -0.985 -16.146  0.00  0.00    +0.059 C 
ATOM     10  C   UNL     1     -11.606  -0.042 -16.630  0.00  0.00    -0.022 A 
ATOM     11  C   UNL     1     -10.285  -0.274 -16.949  0.00  0.00    +0.006 A 
ATOM     12  C   UNL     1      -9.514   0.812 -17.384  0.00  0.00    +0.001 A 
ATOM     13  C   UNL     1     -10.067   2.110 -17.496  0.00  0.00    +0.010 A 
ATOM     14  C   UNL     1     -11.407   2.351 -17.174  0.00  0.00    +0.007 A 
ATOM     15  C   UNL     1     -12.119   1.241 -16.750  0.00  0.00    +0.056 A 
ATOM     16  C   UNL     1     -12.130   3.632 -17.235  0.00  0.00    +0.000 A 
ATOM     17  C   UNL     1     -11.529   4.834 -17.641  0.00  0.00    +0.058 A 
ENDROOT
BRANCH   1  18
ATOM     18  O   UNL     1     -11.590   7.161 -18.055  0.00  0.00    -0.491 OA
ATOM     19  C   UNL     1     -11.645   7.298 -19.477  0.00  0.00    +0.277 C 
ENDBRANCH   1  18
BRANCH   2  20
ATOM     20  O   UNL     1     -14.414   7.156 -17.369  0.00  0.00    -0.491 OA
ATOM     21  C   UNL     1     -14.966   7.480 -16.093  0.00  0.00    +0.277 C 
ENDBRANCH   2  20
TORSDOF 2
ENDMDL
MODEL 3
REMARK VINA RESULT:      -6.5      2.180      2.256
REMARK  Name = min_compound946.pdb
REMARK  4 active torsions:
REMARK  status: ('A' for Active; 'I' for Inactive)
REMARK    1  A    between atoms: _1  and  _3
REMARK    2  A    between atoms: _1  and  _20
REMARK    3  A    between atoms: _2  and  _4
REMARK    4  A    between atoms: _2  and  _21
REMARK                            x       y       z     vdW  Elec       q    Type
REMARK                         _______ _______ _______ _____ _____    ______ ____
ROOT
ATOM      1  C   UNL     1     -14.507  -2.455  -1.756  0.00  0.00    +0.162 A 
ATOM      2  C   UNL     1     -15.639  -2.193  -0.978  0.00  0.00    +0.162 A 
ATOM      3  C   UNL     1     -16.626  -1.344  -1.473  0.00  0.00    +0.063 A 
ATOM      4  C   UNL     1     -16.453  -0.709  -2.711  0.00  0.00    +0.051 A 
ATOM      5  C   UNL     1     -17.538   0.216  -3.192  0.00  0.00    +0.260 A 
ATOM      6  O   UNL     1     -18.549   0.405  -2.524  0.00  0.00    -0.267 OA
ATOM      7  N   UNL     1     -17.316   0.820  -4.405  0.00  0.00    -0.307 N 
ATOM      8  C   UNL     1     -18.197   1.757  -5.097  0.00  0.00    +0.130 C 
ATOM      9  C   UNL     1     -17.483   2.139  -6.416  0.00  0.00    +0.059 C 
ATOM     10  C   UNL     1     -16.215   1.345  -6.339  0.00  0.00    -0.022 A 
ATOM     11  C   UNL     1     -15.162   1.261  -7.225  0.00  0.00    +0.006 A 
ATOM     12  C   UNL     1     -14.087   0.426  -6.890  0.00  0.00    +0.001 A 
ATOM     13  C   UNL     1     -14.076  -0.311  -5.681  0.00  0.00    +0.010 A 
ATOM     14  C   UNL     1     -15.143  -0.229  -4.779  0.00  0.00    +0.007 A 
ATOM     15  C   UNL     1     -16.175   0.610  -5.163  0.00  0.00    +0.056 A 
ATOM     16  C   UNL     1     -15.284  -0.925  -3.489  0.00  0.00    +0.000 A 
ATOM     17  C   UNL     1     -14.317  -1.808  -2.983  0.00  0.00    +0.058 A 
ENDROOT
BRANCH   1  18
ATOM     18  O   UNL     1     -13.525  -3.318  -1.345  0.00  0.00    -0.491 OA
ATOM     19  C   UNL     1     -13.713  -4.596  -1.955  0.00  0.00    +0.277 C 
ENDBRANCH   1  18
BRANCH   2  20
ATOM     20  O   UNL     1     -15.896  -2.761   0.240  0.00  0.00    -0.491 OA
ATOM     21  C   UNL     1     -16.715  -1.948   1.080  0.00  0.00    +0.277 C 
ENDBRANCH   2  20
TORSDOF 2
ENDMDL
MODEL 4
REMARK VINA RESULT:      -6.3     13.297     15.895
REMARK  Name = min_compound946.pdb
REMARK  4 active torsions:
REMARK  status: ('A' for Active; 'I' for Inactive)
REMARK    1  A    between atoms: _1  and  _3
REMARK    2  A    between atoms: _1  and  _20
REMARK    3  A    between atoms: _2  and  _4
REMARK    4  A    between atoms: _2  and  _21
REMARK                            x       y       z     vdW  Elec       q    Type
REMARK                         _______ _______ _______ _____ _____    ______ ____
ROOT
ATOM      1  C   UNL     1     -16.015   8.611 -14.591  0.00  0.00    +0.162 A 
ATOM      2  C   UNL     1     -16.643   7.592 -13.869  0.00  0.00    +0.162 A 
ATOM      3  C   UNL     1     -16.344   6.263 -14.161  0.00  0.00    +0.063 A 
ATOM      4  C   UNL     1     -15.471   5.953 -15.213  0.00  0.00    +0.051 A 
ATOM      5  C   UNL     1     -15.198   4.502 -15.503  0.00  0.00    +0.260 A 
ATOM      6  O   UNL     1     -15.718   3.615 -14.834  0.00  0.00    -0.267 OA
ATOM      7  N   UNL     1     -14.344   4.251 -16.549  0.00  0.00    -0.307 N 
ATOM      8  C   UNL     1     -13.914   2.945 -17.041  0.00  0.00    +0.130 C 
ATOM      9  C   UNL     1     -12.961   3.215 -18.230  0.00  0.00    +0.059 C 
ATOM     10  C   UNL     1     -12.941   4.712 -18.295  0.00  0.00    -0.022 A 
ATOM     11  C   UNL     1     -12.267   5.558 -19.150  0.00  0.00    +0.006 A 
ATOM     12  C   UNL     1     -12.439   6.938 -18.979  0.00  0.00    +0.001 A 
ATOM     13  C   UNL     1     -13.277   7.455 -17.962  0.00  0.00    +0.010 A 
ATOM     14  C   UNL     1     -13.963   6.601 -17.091  0.00  0.00    +0.007 A 
ATOM     15  C   UNL     1     -13.755   5.250 -17.308  0.00  0.00    +0.056 A 
ATOM     16  C   UNL     1     -14.866   6.976 -15.990  0.00  0.00    +0.000 A 
ATOM     17  C   UNL     1     -15.160   8.308 -15.658  0.00  0.00    +0.058 A 
ENDROOT
BRANCH   1  18
ATOM     18  O   UNL     1     -16.231   9.937 -14.319  0.00  0.00    -0.491 OA
ATOM     19  C   UNL     1     -16.723  10.599 -15.486  0.00  0.00    +0.277 C 
ENDBRANCH   1  18
BRANCH   2  20
ATOM     20  O   UNL     1     -17.509   7.794 -12.828  0.00  0.00    -0.491 OA
ATOM     21  C   UNL     1     -17.619   6.668 -11.959  0.00  0.00    +0.277 C 
ENDBRANCH   2  20
TORSDOF 2
ENDMDL
MODEL 5
REMARK VINA RESULT:      -6.3      3.185      5.849
REMARK  Name = min_compound946.pdb
REMARK  4 active torsions:
REMARK  status: ('A' for Active; 'I' for Inactive)
REMARK    1  A    between atoms: _1  and  _3
REMARK    2  A    between atoms: _1  and  _20
REMARK    3  A    between atoms: _2  and  _4
REMARK    4  A    between atoms: _2  and  _21
REMARK                            x       y       z     vdW  Elec       q    Type
REMARK                         _______ _______ _______ _____ _____    ______ ____
ROOT
ATOM      1  C   UNL     1     -18.313   1.381  -7.813  0.00  0.00    +0.162 A 
ATOM      2  C   UNL     1     -19.241   0.355  -7.611  0.00  0.00    +0.162 A 
ATOM      3  C   UNL     1     -19.077  -0.511  -6.532  0.00  0.00    +0.063 A 
ATOM      4  C   UNL     1     -17.957  -0.392  -5.698  0.00  0.00    +0.051 A 
ATOM      5  C   UNL     1     -17.814  -1.365  -4.560  0.00  0.00    +0.260 A 
ATOM      6  O   UNL     1     -18.656  -2.234  -4.362  0.00  0.00    -0.267 OA
ATOM      7  N   UNL     1     -16.694  -1.212  -3.778  0.00  0.00    -0.307 N 
ATOM      8  C   UNL     1     -16.312  -2.016  -2.620  0.00  0.00    +0.130 C 
ATOM      9  C   UNL     1     -14.974  -1.436  -2.105  0.00  0.00    +0.059 C 
ATOM     10  C   UNL     1     -14.720  -0.310  -3.061  0.00  0.00    -0.022 A 
ATOM     11  C   UNL     1     -13.678   0.590  -3.120  0.00  0.00    +0.006 A 
ATOM     12  C   UNL     1     -13.698   1.552  -4.139  0.00  0.00    +0.001 A 
ATOM     13  C   UNL     1     -14.753   1.604  -5.081  0.00  0.00    +0.010 A 
ATOM     14  C   UNL     1     -15.814   0.693  -5.025  0.00  0.00    +0.007 A 
ATOM     15  C   UNL     1     -15.740  -0.233  -3.998  0.00  0.00    +0.056 A 
ATOM     16  C   UNL     1     -16.978   0.614  -5.922  0.00  0.00    +0.000 A 
ATOM     17  C   UNL     1     -17.180   1.492  -6.998  0.00  0.00    +0.058 A 
ENDROOT
BRANCH   1  18
ATOM     18  O   UNL     1     -18.446   2.294  -8.828  0.00  0.00    -0.491 OA
ATOM     19  C   UNL     1     -17.157   2.671  -9.315  0.00  0.00    +0.277 C 
ENDBRANCH   1  18
BRANCH   2  20
ATOM     20  O   UNL     1     -20.363   0.158  -8.370  0.00  0.00    -0.491 OA
ATOM     21  C   UNL     1     -21.448  -0.409  -7.636  0.00  0.00    +0.277 C 
ENDBRANCH   2  20
TORSDOF 2
ENDMDL
MODEL 6
REMARK VINA RESULT:      -6.3      5.914      8.758
REMARK  Name = min_compound946.pdb
REMARK  4 active torsions:
REMARK  status: ('A' for Active; 'I' for Inactive)
REMARK    1  A    between atoms: _1  and  _3
REMARK    2  A    between atoms: _1  and  _20
REMARK    3  A    between atoms: _2  and  _4
REMARK    4  A    between atoms: _2  and  _21
REMARK                            x       y       z     vdW  Elec       q    Type
REMARK                         _______ _______ _______ _____ _____    ______ ____
ROOT
ATOM      1  C   UNL     1     -16.528   4.295 -10.449  0.00  0.00    +0.162 A 
ATOM      2  C   UNL     1     -17.910   4.243 -10.653  0.00  0.00    +0.162 A 
ATOM      3  C   UNL     1     -18.676   3.346  -9.912  0.00  0.00    +0.063 A 
ATOM      4  C   UNL     1     -18.056   2.461  -9.019  0.00  0.00    +0.051 A 
ATOM      5  C   UNL     1     -18.925   1.496  -8.259  0.00  0.00    +0.260 A 
ATOM      6  O   UNL     1     -20.142   1.488  -8.410  0.00  0.00    -0.267 OA
ATOM      7  N   UNL     1     -18.269   0.644  -7.404  0.00  0.00    -0.307 N 
ATOM      8  C   UNL     1     -18.865  -0.384  -6.555  0.00  0.00    +0.130 C 
ATOM      9  C   UNL     1     -17.698  -1.059  -5.797  0.00  0.00    +0.059 C 
ATOM     10  C   UNL     1     -16.504  -0.313  -6.311  0.00  0.00    -0.022 A 
ATOM     11  C   UNL     1     -15.167  -0.454  -6.007  0.00  0.00    +0.006 A 
ATOM     12  C   UNL     1     -14.254   0.392  -6.651  0.00  0.00    +0.001 A 
ATOM     13  C   UNL     1     -14.684   1.364  -7.585  0.00  0.00    +0.010 A 
ATOM     14  C   UNL     1     -16.040   1.512  -7.897  0.00  0.00    +0.007 A 
ATOM     15  C   UNL     1     -16.894   0.649  -7.231  0.00  0.00    +0.056 A 
ATOM     16  C   UNL     1     -16.647   2.467  -8.840  0.00  0.00    +0.000 A 
ATOM     17  C   UNL     1     -15.900   3.399  -9.576  0.00  0.00    +0.058 A 
ENDROOT
BRANCH   1  18
ATOM     18  O   UNL     1     -15.727   5.189 -11.112  0.00  0.00    -0.491 OA
ATOM     19  C   UNL     1     -15.115   4.553 -12.236  0.00  0.00    +0.277 C 
ENDBRANCH   1  18
BRANCH   2  20
ATOM     20  O   UNL     1     -18.605   5.063 -11.501  0.00  0.00    -0.491 OA
ATOM     21  C   UNL     1     -19.038   4.405 -12.692  0.00  0.00    +0.277 C 
ENDBRANCH   2  20
TORSDOF 2
ENDMDL
MODEL 7
REMARK VINA RESULT:      -6.2      4.543      7.278
REMARK  Name = min_compound946.pdb
REMARK  4 active torsions:
REMARK  status: ('A' for Active; 'I' for Inactive)
REMARK    1  A    between atoms: _1  and  _3
REMARK    2  A    between atoms: _1  and  _20
REMARK    3  A    between atoms: _2  and  _4
REMARK    4  A    between atoms: _2  and  _21
REMARK                            x       y       z     vdW  Elec       q    Type
REMARK                         _______ _______ _______ _____ _____    ______ ____
ROOT
ATOM      1  C   UNL     1     -17.576   5.273  -4.110  0.00  0.00    +0.162 A 
ATOM      2  C   UNL     1     -18.439   5.172  -5.205  0.00  0.00    +0.162 A 
ATOM      3  C   UNL     1     -18.350   4.064  -6.045  0.00  0.00    +0.063 A 
ATOM      4  C   UNL     1     -17.361   3.094  -5.829  0.00  0.00    +0.051 A 
ATOM      5  C   UNL     1     -17.293   1.928  -6.777  0.00  0.00    +0.260 A 
ATOM      6  O   UNL     1     -18.084   1.824  -7.709  0.00  0.00    -0.267 OA
ATOM      7  N   UNL     1     -16.301   1.012  -6.528  0.00  0.00    -0.307 N 
ATOM      8  C   UNL     1     -16.012  -0.201  -7.289  0.00  0.00    +0.130 C 
ATOM      9  C   UNL     1     -14.801  -0.874  -6.599  0.00  0.00    +0.059 C 
ATOM     10  C   UNL     1     -14.513   0.063  -5.465  0.00  0.00    -0.022 A 
ATOM     11  C   UNL     1     -13.545   0.004  -4.486  0.00  0.00    +0.006 A 
ATOM     12  C   UNL     1     -13.507   1.036  -3.538  0.00  0.00    +0.001 A 
ATOM     13  C   UNL     1     -14.431   2.107  -3.579  0.00  0.00    +0.010 A 
ATOM     14  C   UNL     1     -15.416   2.171  -4.570  0.00  0.00    +0.007 A 
ATOM     15  C   UNL     1     -15.404   1.126  -5.478  0.00  0.00    +0.056 A 
ATOM     16  C   UNL     1     -16.443   3.210  -4.751  0.00  0.00    +0.000 A 
ATOM     17  C   UNL     1     -16.571   4.320  -3.901  0.00  0.00    +0.058 A 
ENDROOT
BRANCH   1  18
ATOM     18  O   UNL     1     -17.645   6.313  -3.220  0.00  0.00    -0.491 OA
ATOM     19  C   UNL     1     -16.622   7.268  -3.507  0.00  0.00    +0.277 C 
ENDBRANCH   1  18
BRANCH   2  20
ATOM     20  O   UNL     1     -19.433   6.066  -5.498  0.00  0.00    -0.491 OA
ATOM     21  C   UNL     1     -19.542   6.351  -6.892  0.00  0.00    +0.277 C 
ENDBRANCH   2  20
TORSDOF 2
ENDMDL
MODEL 8
REMARK VINA RESULT:      -6.1     15.987     17.894
REMARK  Name = min_compound946.pdb
REMARK  4 active torsions:
REMARK  status: ('A' for Active; 'I' for Inactive)
REMARK    1  A    between atoms: _1  and  _3
REMARK    2  A    between atoms: _1  and  _20
REMARK    3  A    between atoms: _2  and  _4
REMARK    4  A    between atoms: _2  and  _21
REMARK                            x       y       z     vdW  Elec       q    Type
REMARK                         _______ _______ _______ _____ _____    ______ ____
ROOT
ATOM      1  C   UNL     1     -14.657   3.071 -21.058  0.00  0.00    +0.162 A 
ATOM      2  C   UNL     1     -14.570   4.462 -21.166  0.00  0.00    +0.162 A 
ATOM      3  C   UNL     1     -13.725   5.162 -20.308  0.00  0.00    +0.063 A 
ATOM      4  C   UNL     1     -13.021   4.482 -19.304  0.00  0.00    +0.051 A 
ATOM      5  C   UNL     1     -12.138   5.286 -18.389  0.00  0.00    +0.260 A 
ATOM      6  O   UNL     1     -12.032   6.501 -18.520  0.00  0.00    -0.267 OA
ATOM      7  N   UNL     1     -11.478   4.575 -17.417  0.00  0.00    -0.307 N 
ATOM      8  C   UNL     1     -10.568   5.104 -16.404  0.00  0.00    +0.130 C 
ATOM      9  C   UNL     1     -10.101   3.895 -15.559  0.00  0.00    +0.059 C 
ATOM     10  C   UNL     1     -10.820   2.751 -16.207  0.00  0.00    -0.022 A 
ATOM     11  C   UNL     1     -10.808   1.406 -15.904  0.00  0.00    +0.006 A 
ATOM     12  C   UNL     1     -11.591   0.549 -16.690  0.00  0.00    +0.001 A 
ATOM     13  C   UNL     1     -12.372   1.043 -17.763  0.00  0.00    +0.010 A 
ATOM     14  C   UNL     1     -12.387   2.407 -18.074  0.00  0.00    +0.007 A 
ATOM     15  C   UNL     1     -11.595   3.203 -17.265  0.00  0.00    +0.056 A 
ATOM     16  C   UNL     1     -13.139   3.075 -19.149  0.00  0.00    +0.000 A 
ATOM     17  C   UNL     1     -13.974   2.388 -20.044  0.00  0.00    +0.058 A 
ENDROOT
BRANCH   1  18
ATOM     18  O   UNL     1     -15.434   2.321 -21.903  0.00  0.00    -0.491 OA
ATOM     19  C   UNL     1     -14.698   2.004 -23.087  0.00  0.00    +0.277 C 
ENDBRANCH   1  18
BRANCH   2  20
ATOM     20  O   UNL     1     -15.218   5.212 -22.109  0.00  0.00    -0.491 OA
ATOM     21  C   UNL     1     -14.342   5.762 -23.092  0.00  0.00    +0.277 C 
ENDBRANCH   2  20
TORSDOF 2
ENDMDL
MODEL 9
REMARK VINA RESULT:      -5.9      2.621      6.404
REMARK  Name = min_compound946.pdb
REMARK  4 active torsions:
REMARK  status: ('A' for Active; 'I' for Inactive)
REMARK    1  A    between atoms: _1  and  _3
REMARK    2  A    between atoms: _1  and  _20
REMARK    3  A    between atoms: _2  and  _4
REMARK    4  A    between atoms: _2  and  _21
REMARK                            x       y       z     vdW  Elec       q    Type
REMARK                         _______ _______ _______ _____ _____    ______ ____
ROOT
ATOM      1  C   UNL     1     -18.426   3.940  -5.778  0.00  0.00    +0.162 A 
ATOM      2  C   UNL     1     -19.422   2.973  -5.941  0.00  0.00    +0.162 A 
ATOM      3  C   UNL     1     -19.199   1.678  -5.479  0.00  0.00    +0.063 A 
ATOM      4  C   UNL     1     -17.962   1.335  -4.914  0.00  0.00    +0.051 A 
ATOM      5  C   UNL     1     -17.763  -0.082  -4.450  0.00  0.00    +0.260 A 
ATOM      6  O   UNL     1     -18.659  -0.913  -4.556  0.00  0.00    -0.267 OA
ATOM      7  N   UNL     1     -16.532  -0.369  -3.913  0.00  0.00    -0.307 N 
ATOM      8  C   UNL     1     -16.076  -1.655  -3.393  0.00  0.00    +0.130 C 
ATOM      9  C   UNL     1     -14.621  -1.444  -2.912  0.00  0.00    +0.059 C 
ATOM     10  C   UNL     1     -14.386   0.005  -3.218  0.00  0.00    -0.022 A 
ATOM     11  C   UNL     1     -13.270   0.788  -3.015  0.00  0.00    +0.006 A 
ATOM     12  C   UNL     1     -13.333   2.133  -3.405  0.00  0.00    +0.001 A 
ATOM     13  C   UNL     1     -14.502   2.676  -3.990  0.00  0.00    +0.010 A 
ATOM     14  C   UNL     1     -15.637   1.885  -4.197  0.00  0.00    +0.007 A 
ATOM     15  C   UNL     1     -15.517   0.567  -3.792  0.00  0.00    +0.056 A 
ATOM     16  C   UNL     1     -16.922   2.294  -4.788  0.00  0.00    +0.000 A 
ATOM     17  C   UNL     1     -17.181   3.600  -5.235  0.00  0.00    +0.058 A 
ENDROOT
BRANCH   1  18
ATOM     18  O   UNL     1     -18.603   5.242  -6.168  0.00  0.00    -0.491 OA
ATOM     19  C   UNL     1     -17.572   5.621  -7.082  0.00  0.00    +0.277 C 
ENDBRANCH   1  18
BRANCH   2  20
ATOM     20  O   UNL     1     -20.657   3.210  -6.481  0.00  0.00    -0.491 OA
ATOM     21  C   UNL     1     -21.041   2.242  -7.457  0.00  0.00    +0.277 C 
ENDBRANCH   2  20
TORSDOF 2
ENDMDL
