MODEL 1
REMARK VINA RESULT:      -6.0      0.000      0.000
REMARK  Name = min_compound950.pdb
REMARK  4 active torsions:
REMARK  status: ('A' for Active; 'I' for Inactive)
REMARK    1  A    between atoms: _7  and  _14
REMARK    2  A    between atoms: _9  and  _17
REMARK    3  A    between atoms: _10  and  _12
REMARK    4  A    between atoms: _13  and  _14
REMARK                            x       y       z     vdW  Elec       q    Type
REMARK                         _______ _______ _______ _____ _____    ______ ____
ROOT
ATOM      1  S   UNL     1     -14.499   7.746 -17.502  0.00  0.00    -0.072 S 
ATOM      2  C   UNL     1     -15.840   6.923 -16.744  0.00  0.00    +0.076 A 
ATOM      3  C   UNL     1     -17.137   7.667 -16.613  0.00  0.00    +0.073 C 
ATOM      4  N   UNL     1     -15.488   5.679 -16.371  0.00  0.00    -0.244 NA
ATOM      5  C   UNL     1     -14.107   5.343 -16.688  0.00  0.00    +0.080 A 
ATOM      6  C   UNL     1     -13.320   4.119 -16.464  0.00  0.00    +0.057 A 
ATOM      7  C   UNL     1     -11.908   3.896 -16.833  0.00  0.00    +0.111 A 
ATOM      8  C   UNL     1     -11.352   5.021 -17.452  0.00  0.00    +0.030 A 
ATOM      9  C   UNL     1     -12.073   6.235 -17.695  0.00  0.00    +0.019 A 
ATOM     10  C   UNL     1     -13.433   6.383 -17.314  0.00  0.00    +0.039 A 
ENDROOT
BRANCH   7  11
ATOM     11  S   UNL     1     -11.093   2.658 -16.607  0.00  0.00    +0.074 S 
ATOM     12  O   UNL     1      -9.919   3.260 -17.256  0.00  0.00    -0.150 OA
ATOM     13  O   UNL     1     -11.251   2.769 -15.149  0.00  0.00    -0.150 OA
BRANCH  11  14
ATOM     14  N   UNL     1     -10.277   1.420 -16.381  0.00  0.00    -0.186 N 
ATOM     15  H   UNL     1      -9.327   1.595 -16.081  0.00  0.00    +0.177 HD
ATOM     16  C   UNL     1     -10.738   0.121 -16.572  0.00  0.00    +0.229 C 
ATOM     17  C   UNL     1      -9.725  -0.953 -16.307  0.00  0.00    +0.111 C 
ATOM     18  O   UNL     1     -11.880  -0.111 -16.949  0.00  0.00    -0.275 OA
ENDBRANCH  11  14
ENDBRANCH   7  11
TORSDOF 2
ENDMDL
MODEL 2
REMARK VINA RESULT:      -5.7      2.779      6.599
REMARK  Name = min_compound950.pdb
REMARK  4 active torsions:
REMARK  status: ('A' for Active; 'I' for Inactive)
REMARK    1  A    between atoms: _7  and  _14
REMARK    2  A    between atoms: _9  and  _17
REMARK    3  A    between atoms: _10  and  _12
REMARK    4  A    between atoms: _13  and  _14
REMARK                            x       y       z     vdW  Elec       q    Type
REMARK                         _______ _______ _______ _____ _____    ______ ____
ROOT
ATOM      1  S   UNL     1     -10.083   1.428 -16.355  0.00  0.00    -0.072 S 
ATOM      2  C   UNL     1     -11.537   0.473 -16.518  0.00  0.00    +0.076 A 
ATOM      3  C   UNL     1     -11.427  -1.011 -16.325  0.00  0.00    +0.073 C 
ATOM      4  N   UNL     1     -12.592   1.255 -16.810  0.00  0.00    -0.244 NA
ATOM      5  C   UNL     1     -12.260   2.669 -16.912  0.00  0.00    +0.080 A 
ATOM      6  C   UNL     1     -13.088   3.851 -17.207  0.00  0.00    +0.057 A 
ATOM      7  C   UNL     1     -12.631   5.252 -17.287  0.00  0.00    +0.111 A 
ATOM      8  C   UNL     1     -11.258   5.363 -17.043  0.00  0.00    +0.030 A 
ATOM      9  C   UNL     1     -10.408   4.247 -16.750  0.00  0.00    +0.019 A 
ATOM     10  C   UNL     1     -10.914   2.922 -16.688  0.00  0.00    +0.039 A 
ENDROOT
BRANCH   7  11
ATOM     11  S   UNL     1     -13.460   6.464 -17.591  0.00  0.00    +0.074 S 
ATOM     12  O   UNL     1     -12.265   7.251 -17.929  0.00  0.00    -0.150 OA
ATOM     13  O   UNL     1     -14.184   5.754 -18.656  0.00  0.00    -0.150 OA
BRANCH  11  14
ATOM     14  N   UNL     1     -14.290   7.677 -17.895  0.00  0.00    -0.186 N 
ATOM     15  H   UNL     1     -14.202   8.014 -18.845  0.00  0.00    +0.177 HD
ATOM     16  C   UNL     1     -15.110   8.326 -16.978  0.00  0.00    +0.229 C 
ATOM     17  C   UNL     1     -15.819   9.535 -17.513  0.00  0.00    +0.111 C 
ATOM     18  O   UNL     1     -15.217   7.941 -15.821  0.00  0.00    -0.275 OA
ENDBRANCH  11  14
ENDBRANCH   7  11
TORSDOF 2
ENDMDL
MODEL 3
REMARK VINA RESULT:      -5.6      3.441      6.707
REMARK  Name = min_compound950.pdb
REMARK  4 active torsions:
REMARK  status: ('A' for Active; 'I' for Inactive)
REMARK    1  A    between atoms: _7  and  _14
REMARK    2  A    between atoms: _9  and  _17
REMARK    3  A    between atoms: _10  and  _12
REMARK    4  A    between atoms: _13  and  _14
REMARK                            x       y       z     vdW  Elec       q    Type
REMARK                         _______ _______ _______ _____ _____    ______ ____
ROOT
ATOM      1  S   UNL     1     -10.064   1.597 -17.006  0.00  0.00    -0.072 S 
ATOM      2  C   UNL     1     -10.714   0.002 -17.297  0.00  0.00    +0.076 A 
ATOM      3  C   UNL     1      -9.774  -1.061 -17.781  0.00  0.00    +0.073 C 
ATOM      4  N   UNL     1     -12.033  -0.031 -17.029  0.00  0.00    -0.244 NA
ATOM      5  C   UNL     1     -12.569   1.243 -16.574  0.00  0.00    +0.080 A 
ATOM      6  C   UNL     1     -13.929   1.649 -16.179  0.00  0.00    +0.057 A 
ATOM      7  C   UNL     1     -14.356   2.990 -15.732  0.00  0.00    +0.111 A 
ATOM      8  C   UNL     1     -13.288   3.894 -15.717  0.00  0.00    +0.030 A 
ATOM      9  C   UNL     1     -11.949   3.551 -16.089  0.00  0.00    +0.019 A 
ATOM     10  C   UNL     1     -11.604   2.240 -16.511  0.00  0.00    +0.039 A 
ENDROOT
BRANCH   7  11
ATOM     11  S   UNL     1     -15.736   3.419 -15.332  0.00  0.00    +0.074 S 
ATOM     12  O   UNL     1     -15.246   4.732 -14.888  0.00  0.00    -0.150 OA
ATOM     13  O   UNL     1     -16.230   3.258 -16.708  0.00  0.00    -0.150 OA
BRANCH  11  14
ATOM     14  N   UNL     1     -17.117   3.849 -14.932  0.00  0.00    -0.186 N 
ATOM     15  H   UNL     1     -17.541   4.523 -15.556  0.00  0.00    +0.177 HD
ATOM     16  C   UNL     1     -17.789   3.400 -13.800  0.00  0.00    +0.229 C 
ATOM     17  C   UNL     1     -19.151   3.997 -13.598  0.00  0.00    +0.111 C 
ATOM     18  O   UNL     1     -17.287   2.596 -13.026  0.00  0.00    -0.275 OA
ENDBRANCH  11  14
ENDBRANCH   7  11
TORSDOF 2
ENDMDL
MODEL 4
REMARK VINA RESULT:      -5.6      2.010      2.242
REMARK  Name = min_compound950.pdb
REMARK  4 active torsions:
REMARK  status: ('A' for Active; 'I' for Inactive)
REMARK    1  A    between atoms: _7  and  _14
REMARK    2  A    between atoms: _9  and  _17
REMARK    3  A    between atoms: _10  and  _12
REMARK    4  A    between atoms: _13  and  _14
REMARK                            x       y       z     vdW  Elec       q    Type
REMARK                         _______ _______ _______ _____ _____    ______ ____
ROOT
ATOM      1  S   UNL     1     -16.765   6.346 -15.726  0.00  0.00    -0.072 S 
ATOM      2  C   UNL     1     -16.568   6.230 -13.994  0.00  0.00    +0.076 A 
ATOM      3  C   UNL     1     -17.458   7.072 -13.129  0.00  0.00    +0.073 C 
ATOM      4  N   UNL     1     -15.594   5.356 -13.682  0.00  0.00    -0.244 NA
ATOM      5  C   UNL     1     -14.966   4.742 -14.843  0.00  0.00    +0.080 A 
ATOM      6  C   UNL     1     -13.881   3.752 -14.962  0.00  0.00    +0.057 A 
ATOM      7  C   UNL     1     -13.321   3.201 -16.211  0.00  0.00    +0.111 A 
ATOM      8  C   UNL     1     -13.952   3.736 -17.341  0.00  0.00    +0.030 A 
ATOM      9  C   UNL     1     -15.010   4.699 -17.281  0.00  0.00    +0.019 A 
ATOM     10  C   UNL     1     -15.503   5.189 -16.043  0.00  0.00    +0.039 A 
ENDROOT
BRANCH   7  11
ATOM     11  S   UNL     1     -12.215   2.198 -16.349  0.00  0.00    +0.074 S 
ATOM     12  O   UNL     1     -12.122   2.433 -17.797  0.00  0.00    -0.150 OA
ATOM     13  O   UNL     1     -11.353   2.961 -15.434  0.00  0.00    -0.150 OA
BRANCH  11  14
ATOM     14  N   UNL     1     -11.109   1.194 -16.486  0.00  0.00    -0.186 N 
ATOM     15  H   UNL     1     -10.181   1.597 -16.514  0.00  0.00    +0.177 HD
ATOM     16  C   UNL     1     -11.295  -0.181 -16.587  0.00  0.00    +0.229 C 
ATOM     17  C   UNL     1     -10.033  -0.977 -16.744  0.00  0.00    +0.111 C 
ATOM     18  O   UNL     1     -12.410  -0.686 -16.570  0.00  0.00    -0.275 OA
ENDBRANCH  11  14
ENDBRANCH   7  11
TORSDOF 2
ENDMDL
MODEL 5
REMARK VINA RESULT:      -5.5      2.868      3.202
REMARK  Name = min_compound950.pdb
REMARK  4 active torsions:
REMARK  status: ('A' for Active; 'I' for Inactive)
REMARK    1  A    between atoms: _7  and  _14
REMARK    2  A    between atoms: _9  and  _17
REMARK    3  A    between atoms: _10  and  _12
REMARK    4  A    between atoms: _13  and  _14
REMARK                            x       y       z     vdW  Elec       q    Type
REMARK                         _______ _______ _______ _____ _____    ______ ____
ROOT
ATOM      1  S   UNL     1     -17.555   5.232 -14.608  0.00  0.00    -0.072 S 
ATOM      2  C   UNL     1     -18.368   3.716 -14.300  0.00  0.00    +0.076 A 
ATOM      3  C   UNL     1     -19.766   3.767 -13.760  0.00  0.00    +0.073 C 
ATOM      4  N   UNL     1     -17.572   2.677 -14.610  0.00  0.00    -0.244 NA
ATOM      5  C   UNL     1     -16.264   3.071 -15.113  0.00  0.00    +0.080 A 
ATOM      6  C   UNL     1     -15.106   2.278 -15.562  0.00  0.00    +0.057 A 
ATOM      7  C   UNL     1     -13.817   2.800 -16.055  0.00  0.00    +0.111 A 
ATOM      8  C   UNL     1     -13.792   4.199 -16.058  0.00  0.00    +0.030 A 
ATOM      9  C   UNL     1     -14.888   5.016 -15.634  0.00  0.00    +0.019 A 
ATOM     10  C   UNL     1     -16.105   4.449 -15.169  0.00  0.00    +0.039 A 
ENDROOT
BRANCH   7  11
ATOM     11  S   UNL     1     -12.628   2.006 -16.510  0.00  0.00    +0.074 S 
ATOM     12  O   UNL     1     -12.870   2.367 -17.914  0.00  0.00    -0.150 OA
ATOM     13  O   UNL     1     -11.717   2.827 -15.698  0.00  0.00    -0.150 OA
BRANCH  11  14
ATOM     14  N   UNL     1     -11.439   1.212 -16.965  0.00  0.00    -0.186 N 
ATOM     15  H   UNL     1     -10.679   1.772 -17.330  0.00  0.00    +0.177 HD
ATOM     16  C   UNL     1     -11.351  -0.175 -16.925  0.00  0.00    +0.229 C 
ATOM     17  C   UNL     1     -10.070  -0.741 -17.463  0.00  0.00    +0.111 C 
ATOM     18  O   UNL     1     -12.266  -0.870 -16.502  0.00  0.00    -0.275 OA
ENDBRANCH  11  14
ENDBRANCH   7  11
TORSDOF 2
ENDMDL
MODEL 6
REMARK VINA RESULT:      -5.5      2.993      6.815
REMARK  Name = min_compound950.pdb
REMARK  4 active torsions:
REMARK  status: ('A' for Active; 'I' for Inactive)
REMARK    1  A    between atoms: _7  and  _14
REMARK    2  A    between atoms: _9  and  _17
REMARK    3  A    between atoms: _10  and  _12
REMARK    4  A    between atoms: _13  and  _14
REMARK                            x       y       z     vdW  Elec       q    Type
REMARK                         _______ _______ _______ _____ _____    ______ ____
ROOT
ATOM      1  S   UNL     1     -11.476   0.809 -17.990  0.00  0.00    -0.072 S 
ATOM      2  C   UNL     1     -10.608   0.711 -16.477  0.00  0.00    +0.076 A 
ATOM      3  C   UNL     1      -9.501  -0.294 -16.367  0.00  0.00    +0.073 C 
ATOM      4  N   UNL     1     -11.093   1.600 -15.591  0.00  0.00    -0.244 NA
ATOM      5  C   UNL     1     -12.193   2.401 -16.109  0.00  0.00    +0.080 A 
ATOM      6  C   UNL     1     -13.002   3.469 -15.496  0.00  0.00    +0.057 A 
ATOM      7  C   UNL     1     -14.107   4.214 -16.130  0.00  0.00    +0.111 A 
ATOM      8  C   UNL     1     -14.330   3.790 -17.444  0.00  0.00    +0.030 A 
ATOM      9  C   UNL     1     -13.573   2.759 -18.088  0.00  0.00    +0.019 A 
ATOM     10  C   UNL     1     -12.520   2.080 -17.420  0.00  0.00    +0.039 A 
ENDROOT
BRANCH   7  11
ATOM     11  S   UNL     1     -14.942   5.299 -15.517  0.00  0.00    +0.074 S 
ATOM     12  O   UNL     1     -16.065   5.003 -16.419  0.00  0.00    -0.150 OA
ATOM     13  O   UNL     1     -14.885   4.655 -14.197  0.00  0.00    -0.150 OA
BRANCH  11  14
ATOM     14  N   UNL     1     -15.777   6.384 -14.905  0.00  0.00    -0.186 N 
ATOM     15  H   UNL     1     -16.482   6.053 -14.259  0.00  0.00    +0.177 HD
ATOM     16  C   UNL     1     -15.643   7.741 -15.184  0.00  0.00    +0.229 C 
ATOM     17  C   UNL     1     -16.614   8.631 -14.466  0.00  0.00    +0.111 C 
ATOM     18  O   UNL     1     -14.806   8.159 -15.974  0.00  0.00    -0.275 OA
ENDBRANCH  11  14
ENDBRANCH   7  11
TORSDOF 2
ENDMDL
MODEL 7
REMARK VINA RESULT:      -5.4     12.820     14.504
REMARK  Name = min_compound950.pdb
REMARK  4 active torsions:
REMARK  status: ('A' for Active; 'I' for Inactive)
REMARK    1  A    between atoms: _7  and  _14
REMARK    2  A    between atoms: _9  and  _17
REMARK    3  A    between atoms: _10  and  _12
REMARK    4  A    between atoms: _13  and  _14
REMARK                            x       y       z     vdW  Elec       q    Type
REMARK                         _______ _______ _______ _____ _____    ______ ____
ROOT
ATOM      1  S   UNL     1     -15.460  -2.470  -0.997  0.00  0.00    -0.072 S 
ATOM      2  C   UNL     1     -14.405  -3.650  -1.736  0.00  0.00    +0.076 A 
ATOM      3  C   UNL     1     -13.968  -4.819  -0.903  0.00  0.00    +0.073 C 
ATOM      4  N   UNL     1     -14.127  -3.311  -3.008  0.00  0.00    -0.244 NA
ATOM      5  C   UNL     1     -14.765  -2.074  -3.436  0.00  0.00    +0.080 A 
ATOM      6  C   UNL     1     -14.735  -1.349  -4.718  0.00  0.00    +0.057 A 
ATOM      7  C   UNL     1     -15.430  -0.086  -5.034  0.00  0.00    +0.111 A 
ATOM      8  C   UNL     1     -16.163   0.389  -3.941  0.00  0.00    +0.030 A 
ATOM      9  C   UNL     1     -16.226  -0.277  -2.675  0.00  0.00    +0.019 A 
ATOM     10  C   UNL     1     -15.532  -1.493  -2.436  0.00  0.00    +0.039 A 
ENDROOT
BRANCH   7  11
ATOM     11  S   UNL     1     -15.405   0.666  -6.332  0.00  0.00    +0.074 S 
ATOM     12  O   UNL     1     -14.076   1.220  -6.036  0.00  0.00    -0.150 OA
ATOM     13  O   UNL     1     -15.515  -0.580  -7.104  0.00  0.00    -0.150 OA
BRANCH  11  14
ATOM     14  N   UNL     1     -15.381   1.418  -7.629  0.00  0.00    -0.186 N 
ATOM     15  H   UNL     1     -14.611   1.173  -8.239  0.00  0.00    +0.177 HD
ATOM     16  C   UNL     1     -16.305   2.390  -7.999  0.00  0.00    +0.229 C 
ATOM     17  C   UNL     1     -16.054   3.022  -9.337  0.00  0.00    +0.111 C 
ATOM     18  O   UNL     1     -17.234   2.711  -7.269  0.00  0.00    -0.275 OA
ENDBRANCH  11  14
ENDBRANCH   7  11
TORSDOF 2
ENDMDL
MODEL 8
REMARK VINA RESULT:      -5.3      1.857      2.443
REMARK  Name = min_compound950.pdb
REMARK  4 active torsions:
REMARK  status: ('A' for Active; 'I' for Inactive)
REMARK    1  A    between atoms: _7  and  _14
REMARK    2  A    between atoms: _9  and  _17
REMARK    3  A    between atoms: _10  and  _12
REMARK    4  A    between atoms: _13  and  _14
REMARK                            x       y       z     vdW  Elec       q    Type
REMARK                         _______ _______ _______ _____ _____    ______ ____
ROOT
ATOM      1  S   UNL     1     -15.769   6.629 -18.895  0.00  0.00    -0.072 S 
ATOM      2  C   UNL     1     -14.994   7.512 -17.602  0.00  0.00    +0.076 A 
ATOM      3  C   UNL     1     -15.414   8.933 -17.373  0.00  0.00    +0.073 C 
ATOM      4  N   UNL     1     -14.087   6.741 -16.975  0.00  0.00    -0.244 NA
ATOM      5  C   UNL     1     -13.986   5.395 -17.521  0.00  0.00    +0.080 A 
ATOM      6  C   UNL     1     -13.142   4.247 -17.149  0.00  0.00    +0.057 A 
ATOM      7  C   UNL     1     -13.127   2.917 -17.789  0.00  0.00    +0.111 A 
ATOM      8  C   UNL     1     -14.043   2.841 -18.844  0.00  0.00    +0.030 A 
ATOM      9  C   UNL     1     -14.887   3.925 -19.246  0.00  0.00    +0.019 A 
ATOM     10  C   UNL     1     -14.851   5.182 -18.586  0.00  0.00    +0.039 A 
ENDROOT
BRANCH   7  11
ATOM     11  S   UNL     1     -12.271   1.740 -17.424  0.00  0.00    +0.074 S 
ATOM     12  O   UNL     1     -13.299   1.221 -16.510  0.00  0.00    -0.150 OA
ATOM     13  O   UNL     1     -12.241   1.277 -18.819  0.00  0.00    -0.150 OA
BRANCH  11  14
ATOM     14  N   UNL     1     -11.415   0.564 -17.059  0.00  0.00    -0.186 N 
ATOM     15  H   UNL     1     -11.609  -0.274 -17.593  0.00  0.00    +0.177 HD
ATOM     16  C   UNL     1     -10.439   0.571 -16.068  0.00  0.00    +0.229 C 
ATOM     17  C   UNL     1      -9.733  -0.738 -15.869  0.00  0.00    +0.111 C 
ATOM     18  O   UNL     1     -10.201   1.570 -15.402  0.00  0.00    -0.275 OA
ENDBRANCH  11  14
ENDBRANCH   7  11
TORSDOF 2
ENDMDL
MODEL 9
REMARK VINA RESULT:      -5.3      2.847      6.829
REMARK  Name = min_compound950.pdb
REMARK  4 active torsions:
REMARK  status: ('A' for Active; 'I' for Inactive)
REMARK    1  A    between atoms: _7  and  _14
REMARK    2  A    between atoms: _9  and  _17
REMARK    3  A    between atoms: _10  and  _12
REMARK    4  A    between atoms: _13  and  _14
REMARK                            x       y       z     vdW  Elec       q    Type
REMARK                         _______ _______ _______ _____ _____    ______ ____
ROOT
ATOM      1  S   UNL     1     -10.403   0.918 -15.837  0.00  0.00    -0.072 S 
ATOM      2  C   UNL     1     -10.566   0.132 -17.389  0.00  0.00    +0.076 A 
ATOM      3  C   UNL     1      -9.771  -1.116 -17.630  0.00  0.00    +0.073 C 
ATOM      4  N   UNL     1     -11.427   0.804 -18.175  0.00  0.00    -0.244 NA
ATOM      5  C   UNL     1     -11.991   1.989 -17.546  0.00  0.00    +0.080 A 
ATOM      6  C   UNL     1     -12.952   2.994 -18.032  0.00  0.00    +0.057 A 
ATOM      7  C   UNL     1     -13.453   4.168 -17.292  0.00  0.00    +0.111 A 
ATOM      8  C   UNL     1     -12.899   4.246 -16.009  0.00  0.00    +0.030 A 
ATOM      9  C   UNL     1     -11.963   3.296 -15.487  0.00  0.00    +0.019 A 
ATOM     10  C   UNL     1     -11.522   2.185 -16.254  0.00  0.00    +0.039 A 
ENDROOT
BRANCH   7  11
ATOM     11  S   UNL     1     -14.427   5.202 -17.775  0.00  0.00    +0.074 S 
ATOM     12  O   UNL     1     -14.875   4.330 -18.870  0.00  0.00    -0.150 OA
ATOM     13  O   UNL     1     -15.147   5.183 -16.493  0.00  0.00    -0.150 OA
BRANCH  11  14
ATOM     14  N   UNL     1     -15.400   6.235 -18.258  0.00  0.00    -0.186 N 
ATOM     15  H   UNL     1     -16.233   5.855 -18.689  0.00  0.00    +0.177 HD
ATOM     16  C   UNL     1     -15.210   7.610 -18.161  0.00  0.00    +0.229 C 
ATOM     17  C   UNL     1     -16.316   8.442 -18.742  0.00  0.00    +0.111 C 
ATOM     18  O   UNL     1     -14.203   8.090 -17.656  0.00  0.00    -0.275 OA
ENDBRANCH  11  14
ENDBRANCH   7  11
TORSDOF 2
ENDMDL
