MODEL 1
REMARK VINA RESULT:      -7.7      0.000      0.000
REMARK  Name = min_compound928.pdb
REMARK  5 active torsions:
REMARK  status: ('A' for Active; 'I' for Inactive)
REMARK    1  A    between atoms: _2  and  _4
REMARK    2  A    between atoms: _2  and  _19
REMARK    3  A    between atoms: _3  and  _20
REMARK    4  A    between atoms: _6  and  _21
REMARK    5  A    between atoms: _18  and  _19
REMARK                            x       y       z     vdW  Elec       q    Type
REMARK                         _______ _______ _______ _____ _____    ______ ____
ROOT
ATOM      1  C   UNL     1     -14.873  -3.673  -2.019  0.00  0.00    +0.119 A 
ATOM      2  C   UNL     1     -13.496  -4.166  -1.723  0.00  0.00    +0.266 A 
ATOM      3  N   UNL     1     -13.295  -5.496  -1.951  0.00  0.00    -0.274 N 
ATOM      4  C   UNL     1     -14.295  -6.413  -2.027  0.00  0.00    +0.330 A 
ATOM      5  O   UNL     1     -14.029  -7.614  -1.938  0.00  0.00    -0.246 OA
ATOM      6  N   UNL     1     -15.575  -5.910  -2.193  0.00  0.00    -0.285 N 
ATOM      7  C   UNL     1     -16.726  -6.866  -2.305  0.00  0.00    +0.155 C 
ATOM      8  H   UNL     1     -12.381  -5.844  -1.723  0.00  0.00    +0.173 HD
ATOM      9  O   UNL     1     -12.573  -3.489  -1.279  0.00  0.00    -0.267 OA
ATOM     10  C   UNL     1     -15.858  -4.570  -2.269  0.00  0.00    +0.116 A 
ENDROOT
BRANCH  10  11
ATOM     11  N   UNL     1     -17.176  -4.179  -2.556  0.00  0.00    -0.344 N 
ATOM     12  H   UNL     1     -17.688  -4.159  -1.682  0.00  0.00    +0.144 HD
ATOM     13  H   UNL     1     -17.584  -4.974  -3.080  0.00  0.00    +0.144 HD
ENDBRANCH  10  11
BRANCH   1  15
ATOM     14  O   UNL     1     -15.220  -1.905  -0.526  0.00  0.00    -0.292 OA
ATOM     15  C   UNL     1     -15.205  -2.275  -1.739  0.00  0.00    +0.172 C 
BRANCH  15  16
ATOM     16  C   UNL     1     -14.591  -1.027  -3.110  0.00  0.00    +0.084 C 
BRANCH  16  17
ATOM     17  C   UNL     1     -15.142   0.618  -3.611  0.00  0.00    +0.004 C 
ATOM     18  C   UNL     1     -13.496   0.484  -2.915  0.00  0.00    +0.000 C 
ATOM     19  C   UNL     1     -14.591  -1.027  -3.110  0.00  0.00    +0.031 C 
ATOM     20  C   UNL     1     -14.932  -1.477  -4.916  0.00  0.00    -0.031 C 
ATOM     21  C   UNL     1     -14.379  -0.660  -5.910  0.00  0.00    -0.031 C 
ATOM     22  C   UNL     1     -13.805   0.601  -5.469  0.00  0.00    +0.031 C 
ATOM     23  C   UNL     1     -13.820   1.167  -4.072  0.00  0.00    +0.000 C 
ENDBRANCH  16  17
ENDBRANCH  15  16
ENDBRANCH   1  15
TORSDOF 4
ENDMDL
MODEL 2
REMARK VINA RESULT:      -7.7     14.732     17.036
REMARK  Name = min_compound928.pdb
REMARK  5 active torsions:
REMARK  status: ('A' for Active; 'I' for Inactive)
REMARK    1  A    between atoms: _2  and  _4
REMARK    2  A    between atoms: _2  and  _19
REMARK    3  A    between atoms: _3  and  _20
REMARK    4  A    between atoms: _6  and  _21
REMARK    5  A    between atoms: _18  and  _19
REMARK                            x       y       z     vdW  Elec       q    Type
REMARK                         _______ _______ _______ _____ _____    ______ ____
ROOT
ATOM      1  C   UNL     1     -12.720   4.091 -17.280  0.00  0.00    +0.119 A 
ATOM      2  C   UNL     1     -11.583   5.057 -17.254  0.00  0.00    +0.266 A 
ATOM      3  N   UNL     1     -11.558   5.951 -18.284  0.00  0.00    -0.274 N 
ATOM      4  C   UNL     1     -12.210   5.771 -19.462  0.00  0.00    +0.330 A 
ATOM      5  O   UNL     1     -11.908   6.462 -20.438  0.00  0.00    -0.246 OA
ATOM      6  N   UNL     1     -13.186   4.789 -19.477  0.00  0.00    -0.285 N 
ATOM      7  C   UNL     1     -13.961   4.548 -20.739  0.00  0.00    +0.155 C 
ATOM      8  H   UNL     1     -10.778   6.584 -18.292  0.00  0.00    +0.173 HD
ATOM      9  O   UNL     1     -10.686   5.084 -16.415  0.00  0.00    -0.267 OA
ATOM     10  C   UNL     1     -13.497   4.014 -18.389  0.00  0.00    +0.116 A 
ENDROOT
BRANCH  10  11
ATOM     11  N   UNL     1     -14.583   3.129 -18.484  0.00  0.00    -0.344 N 
ATOM     12  H   UNL     1     -15.187   3.463 -19.227  0.00  0.00    +0.144 HD
ATOM     13  H   UNL     1     -15.130   3.281 -17.616  0.00  0.00    +0.144 HD
ENDBRANCH  10  11
BRANCH   1  15
ATOM     14  O   UNL     1     -13.912   2.856 -15.690  0.00  0.00    -0.292 OA
ATOM     15  C   UNL     1     -12.793   3.048 -16.256  0.00  0.00    +0.172 C 
BRANCH  15  16
ATOM     16  C   UNL     1     -11.623   1.522 -16.599  0.00  0.00    +0.084 C 
BRANCH  16  17
ATOM     17  C   UNL     1     -10.836   0.309 -15.517  0.00  0.00    +0.004 C 
ATOM     18  C   UNL     1     -12.234  -0.249 -16.489  0.00  0.00    +0.000 C 
ATOM     19  C   UNL     1     -11.623   1.522 -16.599  0.00  0.00    +0.031 C 
ATOM     20  C   UNL     1      -9.897   1.673 -17.360  0.00  0.00    -0.031 C 
ATOM     21  C   UNL     1      -9.243   0.494 -17.737  0.00  0.00    -0.031 C 
ATOM     22  C   UNL     1      -9.837  -0.753 -17.282  0.00  0.00    +0.031 C 
ATOM     23  C   UNL     1     -11.028  -0.913 -16.372  0.00  0.00    +0.000 C 
ENDBRANCH  16  17
ENDBRANCH  15  16
ENDBRANCH   1  15
TORSDOF 4
ENDMDL
MODEL 3
REMARK VINA RESULT:      -7.7     14.917     17.050
REMARK  Name = min_compound928.pdb
REMARK  5 active torsions:
REMARK  status: ('A' for Active; 'I' for Inactive)
REMARK    1  A    between atoms: _2  and  _4
REMARK    2  A    between atoms: _2  and  _19
REMARK    3  A    between atoms: _3  and  _20
REMARK    4  A    between atoms: _6  and  _21
REMARK    5  A    between atoms: _18  and  _19
REMARK                            x       y       z     vdW  Elec       q    Type
REMARK                         _______ _______ _______ _____ _____    ______ ____
ROOT
ATOM      1  C   UNL     1     -12.923   4.267 -17.275  0.00  0.00    +0.119 A 
ATOM      2  C   UNL     1     -11.780   5.223 -17.368  0.00  0.00    +0.266 A 
ATOM      3  N   UNL     1     -11.802   6.049 -18.453  0.00  0.00    -0.274 N 
ATOM      4  C   UNL     1     -12.514   5.800 -19.584  0.00  0.00    +0.330 A 
ATOM      5  O   UNL     1     -12.258   6.424 -20.616  0.00  0.00    -0.246 OA
ATOM      6  N   UNL     1     -13.496   4.827 -19.486  0.00  0.00    -0.285 N 
ATOM      7  C   UNL     1     -14.335   4.514 -20.689  0.00  0.00    +0.155 C 
ATOM      8  H   UNL     1     -11.020   6.673 -18.542  0.00  0.00    +0.173 HD
ATOM      9  O   UNL     1     -10.841   5.295 -16.579  0.00  0.00    -0.267 OA
ATOM     10  C   UNL     1     -13.755   4.126 -18.336  0.00  0.00    +0.116 A 
ENDROOT
BRANCH  10  11
ATOM     11  N   UNL     1     -14.850   3.248 -18.319  0.00  0.00    -0.344 N 
ATOM     12  H   UNL     1     -15.241   3.261 -17.384  0.00  0.00    +0.144 HD
ATOM     13  H   UNL     1     -14.438   2.302 -18.416  0.00  0.00    +0.144 HD
ENDBRANCH  10  11
BRANCH   1  15
ATOM     14  O   UNL     1     -14.028   3.174 -15.526  0.00  0.00    -0.292 OA
ATOM     15  C   UNL     1     -12.950   3.292 -16.184  0.00  0.00    +0.172 C 
BRANCH  15  16
ATOM     16  C   UNL     1     -11.855   1.708 -16.513  0.00  0.00    +0.084 C 
BRANCH  16  17
ATOM     17  C   UNL     1     -10.962   1.110 -17.964  0.00  0.00    +0.004 C 
ATOM     18  C   UNL     1     -10.002   1.934 -16.695  0.00  0.00    +0.000 C 
ATOM     19  C   UNL     1     -11.855   1.708 -16.513  0.00  0.00    +0.031 C 
ATOM     20  C   UNL     1     -12.375  -0.102 -16.330  0.00  0.00    -0.031 C 
ATOM     21  C   UNL     1     -11.372  -1.078 -16.370  0.00  0.00    -0.031 C 
ATOM     22  C   UNL     1     -10.055  -0.639 -16.799  0.00  0.00    +0.031 C 
ATOM     23  C   UNL     1      -9.670   0.733 -17.293  0.00  0.00    +0.000 C 
ENDBRANCH  16  17
ENDBRANCH  15  16
ENDBRANCH   1  15
TORSDOF 4
ENDMDL
MODEL 4
REMARK VINA RESULT:      -7.5     15.146     17.615
REMARK  Name = min_compound928.pdb
REMARK  5 active torsions:
REMARK  status: ('A' for Active; 'I' for Inactive)
REMARK    1  A    between atoms: _2  and  _4
REMARK    2  A    between atoms: _2  and  _19
REMARK    3  A    between atoms: _3  and  _20
REMARK    4  A    between atoms: _6  and  _21
REMARK    5  A    between atoms: _18  and  _19
REMARK                            x       y       z     vdW  Elec       q    Type
REMARK                         _______ _______ _______ _____ _____    ______ ____
ROOT
ATOM      1  C   UNL     1     -12.975   3.679 -18.412  0.00  0.00    +0.119 A 
ATOM      2  C   UNL     1     -13.579   3.361 -19.739  0.00  0.00    +0.266 A 
ATOM      3  N   UNL     1     -13.287   4.245 -20.736  0.00  0.00    -0.274 N 
ATOM      4  C   UNL     1     -12.859   5.517 -20.523  0.00  0.00    +0.330 A 
ATOM      5  O   UNL     1     -12.901   6.337 -21.443  0.00  0.00    -0.246 OA
ATOM      6  N   UNL     1     -12.406   5.803 -19.245  0.00  0.00    -0.285 N 
ATOM      7  C   UNL     1     -11.900   7.183 -18.942  0.00  0.00    +0.155 C 
ATOM      8  H   UNL     1     -13.716   4.057 -21.624  0.00  0.00    +0.173 HD
ATOM      9  O   UNL     1     -14.317   2.409 -19.980  0.00  0.00    -0.267 OA
ATOM     10  C   UNL     1     -12.386   4.886 -18.226  0.00  0.00    +0.116 A 
ENDROOT
BRANCH  10  11
ATOM     11  N   UNL     1     -11.797   5.253 -17.005  0.00  0.00    -0.344 N 
ATOM     12  H   UNL     1     -12.436   5.881 -16.532  0.00  0.00    +0.144 HD
ATOM     13  H   UNL     1     -10.990   5.850 -17.265  0.00  0.00    +0.144 HD
ENDBRANCH  10  11
BRANCH   1  15
ATOM     14  O   UNL     1     -14.512   2.630 -16.994  0.00  0.00    -0.292 OA
ATOM     15  C   UNL     1     -13.289   2.828 -17.263  0.00  0.00    +0.172 C 
BRANCH  15  16
ATOM     16  C   UNL     1     -12.002   1.388 -16.971  0.00  0.00    +0.084 C 
BRANCH  16  17
ATOM     17  C   UNL     1     -10.823   0.554 -18.055  0.00  0.00    +0.004 C 
ATOM     18  C   UNL     1     -10.171   1.796 -16.941  0.00  0.00    +0.000 C 
ATOM     19  C   UNL     1     -12.002   1.388 -16.971  0.00  0.00    +0.031 C 
ATOM     20  C   UNL     1     -12.389  -0.364 -16.370  0.00  0.00    -0.031 C 
ATOM     21  C   UNL     1     -11.314  -1.179 -15.993  0.00  0.00    -0.031 C 
ATOM     22  C   UNL     1      -9.985  -0.699 -16.333  0.00  0.00    +0.031 C 
ATOM     23  C   UNL     1      -9.640   0.535 -17.128  0.00  0.00    +0.000 C 
ENDBRANCH  16  17
ENDBRANCH  15  16
ENDBRANCH   1  15
TORSDOF 4
ENDMDL
MODEL 5
REMARK VINA RESULT:      -7.5     14.866     16.810
REMARK  Name = min_compound928.pdb
REMARK  5 active torsions:
REMARK  status: ('A' for Active; 'I' for Inactive)
REMARK    1  A    between atoms: _2  and  _4
REMARK    2  A    between atoms: _2  and  _19
REMARK    3  A    between atoms: _3  and  _20
REMARK    4  A    between atoms: _6  and  _21
REMARK    5  A    between atoms: _18  and  _19
REMARK                            x       y       z     vdW  Elec       q    Type
REMARK                         _______ _______ _______ _____ _____    ______ ____
ROOT
ATOM      1  C   UNL     1     -14.016   3.630 -18.050  0.00  0.00    +0.119 A 
ATOM      2  C   UNL     1     -14.986   3.599 -16.916  0.00  0.00    +0.266 A 
ATOM      3  N   UNL     1     -15.404   4.821 -16.478  0.00  0.00    -0.274 N 
ATOM      4  C   UNL     1     -14.734   5.981 -16.708  0.00  0.00    +0.330 A 
ATOM      5  O   UNL     1     -15.004   6.984 -16.042  0.00  0.00    -0.246 OA
ATOM      6  N   UNL     1     -13.763   5.941 -17.695  0.00  0.00    -0.285 N 
ATOM      7  C   UNL     1     -12.997   7.190 -18.017  0.00  0.00    +0.155 C 
ATOM      8  H   UNL     1     -16.032   4.812 -15.694  0.00  0.00    +0.173 HD
ATOM      9  O   UNL     1     -15.399   2.588 -16.354  0.00  0.00    -0.267 OA
ATOM     10  C   UNL     1     -13.459   4.812 -18.412  0.00  0.00    +0.116 A 
ENDROOT
BRANCH  10  11
ATOM     11  N   UNL     1     -12.540   4.916 -19.469  0.00  0.00    -0.344 N 
ATOM     12  H   UNL     1     -13.004   4.598 -20.312  0.00  0.00    +0.144 HD
ATOM     13  H   UNL     1     -11.824   4.192 -19.275  0.00  0.00    +0.144 HD
ENDBRANCH  10  11
BRANCH   1  15
ATOM     14  O   UNL     1     -13.382   2.212 -19.799  0.00  0.00    -0.292 OA
ATOM     15  C   UNL     1     -13.456   2.371 -18.543  0.00  0.00    +0.172 C 
BRANCH  15  16
ATOM     16  C   UNL     1     -12.053   1.630 -17.404  0.00  0.00    +0.084 C 
BRANCH  16  17
ATOM     17  C   UNL     1     -10.381   2.178 -16.997  0.00  0.00    +0.004 C 
ATOM     18  C   UNL     1     -11.636   2.376 -15.733  0.00  0.00    +0.000 C 
ATOM     19  C   UNL     1     -12.053   1.630 -17.404  0.00  0.00    +0.031 C 
ATOM     20  C   UNL     1     -11.220  -0.042 -17.706  0.00  0.00    -0.031 C 
ATOM     21  C   UNL     1     -10.379  -0.545 -16.706  0.00  0.00    -0.031 C 
ATOM     22  C   UNL     1     -10.021   0.373 -15.637  0.00  0.00    +0.031 C 
ATOM     23  C   UNL     1     -10.382   1.833 -15.534  0.00  0.00    +0.000 C 
ENDBRANCH  16  17
ENDBRANCH  15  16
ENDBRANCH   1  15
TORSDOF 4
ENDMDL
MODEL 6
REMARK VINA RESULT:      -7.5     13.833     15.255
REMARK  Name = min_compound928.pdb
REMARK  5 active torsions:
REMARK  status: ('A' for Active; 'I' for Inactive)
REMARK    1  A    between atoms: _2  and  _4
REMARK    2  A    between atoms: _2  and  _19
REMARK    3  A    between atoms: _3  and  _20
REMARK    4  A    between atoms: _6  and  _21
REMARK    5  A    between atoms: _18  and  _19
REMARK                            x       y       z     vdW  Elec       q    Type
REMARK                         _______ _______ _______ _____ _____    ______ ____
ROOT
ATOM      1  C   UNL     1     -14.740   3.476 -16.150  0.00  0.00    +0.119 A 
ATOM      2  C   UNL     1     -14.449   4.939 -16.185  0.00  0.00    +0.266 A 
ATOM      3  N   UNL     1     -15.106   5.683 -15.249  0.00  0.00    -0.274 N 
ATOM      4  C   UNL     1     -16.233   5.277 -14.609  0.00  0.00    +0.330 A 
ATOM      5  O   UNL     1     -16.926   6.102 -14.010  0.00  0.00    -0.246 OA
ATOM      6  N   UNL     1     -16.529   3.926 -14.691  0.00  0.00    -0.285 N 
ATOM      7  C   UNL     1     -17.748   3.402 -13.992  0.00  0.00    +0.155 C 
ATOM      8  H   UNL     1     -14.941   6.673 -15.286  0.00  0.00    +0.173 HD
ATOM      9  O   UNL     1     -13.707   5.503 -16.986  0.00  0.00    -0.267 OA
ATOM     10  C   UNL     1     -15.760   3.023 -15.380  0.00  0.00    +0.116 A 
ENDROOT
BRANCH  10  11
ATOM     11  N   UNL     1     -16.090   1.660 -15.297  0.00  0.00    -0.344 N 
ATOM     12  H   UNL     1     -16.230   1.437 -14.319  0.00  0.00    +0.144 HD
ATOM     13  H   UNL     1     -15.223   1.157 -15.559  0.00  0.00    +0.144 HD
ENDBRANCH  10  11
BRANCH   1  15
ATOM     14  O   UNL     1     -14.283   2.928 -18.378  0.00  0.00    -0.292 OA
ATOM     15  C   UNL     1     -14.138   2.605 -17.160  0.00  0.00    +0.172 C 
BRANCH  15  16
ATOM     16  C   UNL     1     -12.469   1.767 -16.588  0.00  0.00    +0.084 C 
BRANCH  16  17
ATOM     17  C   UNL     1     -10.772   1.865 -17.197  0.00  0.00    +0.004 C 
ATOM     18  C   UNL     1     -11.106   2.583 -15.590  0.00  0.00    +0.000 C 
ATOM     19  C   UNL     1     -12.469   1.767 -16.588  0.00  0.00    +0.031 C 
ATOM     20  C   UNL     1     -12.229  -0.098 -16.799  0.00  0.00    -0.031 C 
ATOM     21  C   UNL     1     -11.088  -0.679 -16.235  0.00  0.00    -0.031 C 
ATOM     22  C   UNL     1     -10.063   0.234 -15.757  0.00  0.00    +0.031 C 
ATOM     23  C   UNL     1     -10.054   1.736 -15.883  0.00  0.00    +0.000 C 
ENDBRANCH  16  17
ENDBRANCH  15  16
ENDBRANCH   1  15
TORSDOF 4
ENDMDL
MODEL 7
REMARK VINA RESULT:      -7.5     14.556     16.613
REMARK  Name = min_compound928.pdb
REMARK  5 active torsions:
REMARK  status: ('A' for Active; 'I' for Inactive)
REMARK    1  A    between atoms: _2  and  _4
REMARK    2  A    between atoms: _2  and  _19
REMARK    3  A    between atoms: _3  and  _20
REMARK    4  A    between atoms: _6  and  _21
REMARK    5  A    between atoms: _18  and  _19
REMARK                            x       y       z     vdW  Elec       q    Type
REMARK                         _______ _______ _______ _____ _____    ______ ____
ROOT
ATOM      1  C   UNL     1     -12.219   2.613 -17.168  0.00  0.00    +0.119 A 
ATOM      2  C   UNL     1     -11.782   2.961 -15.784  0.00  0.00    +0.266 A 
ATOM      3  N   UNL     1     -10.769   2.194 -15.286  0.00  0.00    -0.274 N 
ATOM      4  C   UNL     1     -10.439   0.966 -15.765  0.00  0.00    +0.330 A 
ATOM      5  O   UNL     1      -9.726   0.220 -15.090  0.00  0.00    -0.246 OA
ATOM      6  N   UNL     1     -10.955   0.636 -17.008  0.00  0.00    -0.285 N 
ATOM      7  C   UNL     1     -10.617  -0.697 -17.608  0.00  0.00    +0.155 C 
ATOM      8  H   UNL     1     -10.490   2.400 -14.343  0.00  0.00    +0.173 HD
ATOM      9  O   UNL     1     -12.270   3.839 -15.078  0.00  0.00    -0.267 OA
ATOM     10  C   UNL     1     -11.765   1.469 -17.737  0.00  0.00    +0.116 A 
ENDROOT
BRANCH  10  11
ATOM     11  N   UNL     1     -12.133   1.078 -19.034  0.00  0.00    -0.344 N 
ATOM     12  H   UNL     1     -12.433   1.909 -19.532  0.00  0.00    +0.144 HD
ATOM     13  H   UNL     1     -12.998   0.521 -18.912  0.00  0.00    +0.144 HD
ENDBRANCH  10  11
BRANCH   1  15
ATOM     14  O   UNL     1     -14.443   3.339 -17.122  0.00  0.00    -0.292 OA
ATOM     15  C   UNL     1     -13.347   3.332 -17.761  0.00  0.00    +0.172 C 
BRANCH  15  16
ATOM     16  C   UNL     1     -12.826   4.915 -18.780  0.00  0.00    +0.084 C 
BRANCH  16  17
ATOM     17  C   UNL     1     -13.288   6.657 -18.667  0.00  0.00    +0.004 C 
ATOM     18  C   UNL     1     -11.809   6.145 -17.794  0.00  0.00    +0.000 C 
ATOM     19  C   UNL     1     -12.826   4.915 -18.780  0.00  0.00    +0.031 C 
ATOM     20  C   UNL     1     -12.802   5.246 -20.643  0.00  0.00    -0.031 C 
ATOM     21  C   UNL     1     -12.075   6.350 -21.103  0.00  0.00    -0.031 C 
ATOM     22  C   UNL     1     -11.613   7.289 -20.093  0.00  0.00    +0.031 C 
ATOM     23  C   UNL     1     -11.908   7.252 -18.615  0.00  0.00    +0.000 C 
ENDBRANCH  16  17
ENDBRANCH  15  16
ENDBRANCH   1  15
TORSDOF 4
ENDMDL
MODEL 8
REMARK VINA RESULT:      -7.4     13.837     15.061
REMARK  Name = min_compound928.pdb
REMARK  5 active torsions:
REMARK  status: ('A' for Active; 'I' for Inactive)
REMARK    1  A    between atoms: _2  and  _4
REMARK    2  A    between atoms: _2  and  _19
REMARK    3  A    between atoms: _3  and  _20
REMARK    4  A    between atoms: _6  and  _21
REMARK    5  A    between atoms: _18  and  _19
REMARK                            x       y       z     vdW  Elec       q    Type
REMARK                         _______ _______ _______ _____ _____    ______ ____
ROOT
ATOM      1  C   UNL     1     -11.750   2.941 -16.963  0.00  0.00    +0.119 A 
ATOM      2  C   UNL     1     -10.879   3.192 -15.777  0.00  0.00    +0.266 A 
ATOM      3  N   UNL     1      -9.983   2.203 -15.497  0.00  0.00    -0.274 N 
ATOM      4  C   UNL     1     -10.100   0.923 -15.938  0.00  0.00    +0.330 A 
ATOM      5  O   UNL     1      -9.429   0.033 -15.411  0.00  0.00    -0.246 OA
ATOM      6  N   UNL     1     -11.000   0.712 -16.969  0.00  0.00    -0.285 N 
ATOM      7  C   UNL     1     -11.168  -0.673 -17.519  0.00  0.00    +0.155 C 
ATOM      8  H   UNL     1      -9.415   2.349 -14.681  0.00  0.00    +0.173 HD
ATOM      9  O   UNL     1     -10.931   4.178 -15.047  0.00  0.00    -0.267 OA
ATOM     10  C   UNL     1     -11.756   1.710 -17.530  0.00  0.00    +0.116 A 
ENDROOT
BRANCH  10  11
ATOM     11  N   UNL     1     -12.549   1.402 -18.648  0.00  0.00    -0.344 N 
ATOM     12  H   UNL     1     -13.514   1.364 -18.339  0.00  0.00    +0.144 HD
ATOM     13  H   UNL     1     -12.312   0.421 -18.883  0.00  0.00    +0.144 HD
ENDBRANCH  10  11
BRANCH   1  15
ATOM     14  O   UNL     1     -12.976   4.174 -18.529  0.00  0.00    -0.292 OA
ATOM     15  C   UNL     1     -12.792   3.912 -17.301  0.00  0.00    +0.172 C 
BRANCH  15  16
ATOM     16  C   UNL     1     -14.325   3.879 -16.092  0.00  0.00    +0.084 C 
BRANCH  16  17
ATOM     17  C   UNL     1     -14.485   4.066 -14.303  0.00  0.00    +0.004 C 
ATOM     18  C   UNL     1     -15.280   5.302 -15.329  0.00  0.00    +0.000 C 
ATOM     19  C   UNL     1     -14.325   3.879 -16.092  0.00  0.00    +0.031 C 
ATOM     20  C   UNL     1     -15.127   2.191 -15.790  0.00  0.00    -0.031 C 
ATOM     21  C   UNL     1     -16.303   2.151 -15.031  0.00  0.00    -0.031 C 
ATOM     22  C   UNL     1     -16.666   3.374 -14.333  0.00  0.00    +0.031 C 
ATOM     23  C   UNL     1     -15.869   4.651 -14.262  0.00  0.00    +0.000 C 
ENDBRANCH  16  17
ENDBRANCH  15  16
ENDBRANCH   1  15
TORSDOF 4
ENDMDL
MODEL 9
REMARK VINA RESULT:      -7.3     15.134     16.679
REMARK  Name = min_compound928.pdb
REMARK  5 active torsions:
REMARK  status: ('A' for Active; 'I' for Inactive)
REMARK    1  A    between atoms: _2  and  _4
REMARK    2  A    between atoms: _2  and  _19
REMARK    3  A    between atoms: _3  and  _20
REMARK    4  A    between atoms: _6  and  _21
REMARK    5  A    between atoms: _18  and  _19
REMARK                            x       y       z     vdW  Elec       q    Type
REMARK                         _______ _______ _______ _____ _____    ______ ____
ROOT
ATOM      1  C   UNL     1     -13.703   4.098 -17.535  0.00  0.00    +0.119 A 
ATOM      2  C   UNL     1     -12.757   5.192 -17.903  0.00  0.00    +0.266 A 
ATOM      3  N   UNL     1     -13.079   6.425 -17.416  0.00  0.00    -0.274 N 
ATOM      4  C   UNL     1     -14.324   6.776 -17.000  0.00  0.00    +0.330 A 
ATOM      5  O   UNL     1     -14.605   7.968 -16.857  0.00  0.00    -0.246 OA
ATOM      6  N   UNL     1     -15.209   5.735 -16.773  0.00  0.00    -0.285 N 
ATOM      7  C   UNL     1     -16.596   6.048 -16.294  0.00  0.00    +0.155 C 
ATOM      8  H   UNL     1     -12.466   7.173 -17.686  0.00  0.00    +0.173 HD
ATOM      9  O   UNL     1     -11.760   5.069 -18.610  0.00  0.00    -0.267 OA
ATOM     10  C   UNL     1     -14.888   4.415 -16.958  0.00  0.00    +0.116 A 
ENDROOT
BRANCH  10  11
ATOM     11  N   UNL     1     -15.826   3.438 -16.585  0.00  0.00    -0.344 N 
ATOM     12  H   UNL     1     -15.365   2.797 -15.949  0.00  0.00    +0.144 HD
ATOM     13  H   UNL     1     -15.991   2.882 -17.443  0.00  0.00    +0.144 HD
ENDBRANCH  10  11
BRANCH   1  15
ATOM     14  O   UNL     1     -13.648   2.580 -19.315  0.00  0.00    -0.292 OA
ATOM     15  C   UNL     1     -13.481   2.753 -18.069  0.00  0.00    +0.172 C 
BRANCH  15  16
ATOM     16  C   UNL     1     -12.074   1.760 -17.148  0.00  0.00    +0.084 C 
BRANCH  16  17
ATOM     17  C   UNL     1     -10.318   2.079 -16.878  0.00  0.00    +0.004 C 
ATOM     18  C   UNL     1     -11.419   2.345 -15.491  0.00  0.00    +0.000 C 
ATOM     19  C   UNL     1     -12.074   1.760 -17.148  0.00  0.00    +0.031 C 
ATOM     20  C   UNL     1     -11.486   0.022 -17.614  0.00  0.00    -0.031 C 
ATOM     21  C   UNL     1     -10.628  -0.638 -16.727  0.00  0.00    -0.031 C 
ATOM     22  C   UNL     1     -10.063   0.163 -15.653  0.00  0.00    +0.031 C 
ATOM     23  C   UNL     1     -10.229   1.646 -15.441  0.00  0.00    +0.000 C 
ENDBRANCH  16  17
ENDBRANCH  15  16
ENDBRANCH   1  15
TORSDOF 4
ENDMDL
