MODEL 1
REMARK VINA RESULT:      -4.8      0.000      0.000
REMARK  Name = min_compound1.pdb
REMARK  3 active torsions:
REMARK  status: ('A' for Active; 'I' for Inactive)
REMARK    1  A    between atoms: _2  and  _7
REMARK    2  A    between atoms: _3  and  _9
REMARK    3  A    between atoms: _7  and  _8
REMARK                            x       y       z     vdW  Elec       q    Type
REMARK                         _______ _______ _______ _____ _____    ______ ____
ROOT
ATOM      1  N   UNK A   1     -10.270   1.143 -17.786  0.00  0.00    -0.254 NA
ATOM      2  C   UNK A   0      -9.271   0.397 -17.265  0.00  0.00    +0.111 A 
ATOM      3  C   UNK A   0      -9.477  -0.700 -16.445  0.00  0.00    +0.023 A 
ATOM      4  C   UNK A   1     -10.785  -1.059 -16.137  0.00  0.00    +0.049 A 
ATOM      5  C   UNK A   1     -11.832  -0.305 -16.658  0.00  0.00    +0.140 A 
ATOM      6  C   UNK A   1     -11.548   0.796 -17.471  0.00  0.00    +0.108 A 
ENDROOT
BRANCH   5   7
ATOM      7  O   UNK A   1     -13.129  -0.628 -16.370  0.00  0.00    -0.505 OA
ATOM      8  H   UNK A   1     -13.173  -0.947 -15.451  0.00  0.00    +0.292 HD
ENDBRANCH   5   7
BRANCH   6   9
ATOM      9  C   UNK A   1     -12.649   1.624 -18.097  0.00  0.00    +0.214 C 
BRANCH   9  10
ATOM     10  O   UNK A   1     -12.767   1.456 -19.512  0.00  0.00    -0.389 OA
ATOM     11  H   UNK A   1     -11.918   1.761 -19.885  0.00  0.00    +0.210 HD
ENDBRANCH   9  10
ENDBRANCH   6   9
TORSDOF 3
ENDMDL
MODEL 2
REMARK VINA RESULT:      -4.7      2.470      3.508
REMARK  Name = min_compound1.pdb
REMARK  3 active torsions:
REMARK  status: ('A' for Active; 'I' for Inactive)
REMARK    1  A    between atoms: _2  and  _7
REMARK    2  A    between atoms: _3  and  _9
REMARK    3  A    between atoms: _7  and  _8
REMARK                            x       y       z     vdW  Elec       q    Type
REMARK                         _______ _______ _______ _____ _____    ______ ____
ROOT
ATOM      1  N   UNK A   1     -11.943   2.509 -17.868  0.00  0.00    -0.254 NA
ATOM      2  C   UNK A   0     -11.833   3.819 -17.556  0.00  0.00    +0.111 A 
ATOM      3  C   UNK A   0     -11.128   4.292 -16.463  0.00  0.00    +0.023 A 
ATOM      4  C   UNK A   1     -10.493   3.371 -15.636  0.00  0.00    +0.049 A 
ATOM      5  C   UNK A   1     -10.594   2.017 -15.934  0.00  0.00    +0.140 A 
ATOM      6  C   UNK A   1     -11.331   1.611 -17.049  0.00  0.00    +0.108 A 
ENDROOT
BRANCH   5   7
ATOM      7  O   UNK A   1      -9.987   1.085 -15.137  0.00  0.00    -0.505 OA
ATOM      8  H   UNK A   1      -9.347   0.587 -15.675  0.00  0.00    +0.292 HD
ENDBRANCH   5   7
BRANCH   6   9
ATOM      9  C   UNK A   1     -11.438   0.152 -17.442  0.00  0.00    +0.214 C 
BRANCH   9  10
ATOM     10  O   UNK A   1     -12.241  -0.628 -16.554  0.00  0.00    -0.389 OA
ATOM     11  H   UNK A   1     -11.730  -0.693 -15.725  0.00  0.00    +0.210 HD
ENDBRANCH   9  10
ENDBRANCH   6   9
TORSDOF 3
ENDMDL
MODEL 3
REMARK VINA RESULT:      -4.5      2.216      2.299
REMARK  Name = min_compound1.pdb
REMARK  3 active torsions:
REMARK  status: ('A' for Active; 'I' for Inactive)
REMARK    1  A    between atoms: _2  and  _7
REMARK    2  A    between atoms: _3  and  _9
REMARK    3  A    between atoms: _7  and  _8
REMARK                            x       y       z     vdW  Elec       q    Type
REMARK                         _______ _______ _______ _____ _____    ______ ____
ROOT
ATOM      1  N   UNK A   1     -11.284   0.479 -17.949  0.00  0.00    -0.254 NA
ATOM      2  C   UNK A   0     -10.637  -0.626 -17.517  0.00  0.00    +0.111 A 
ATOM      3  C   UNK A   0      -9.970  -0.703 -16.306  0.00  0.00    +0.023 A 
ATOM      4  C   UNK A   1      -9.962   0.419 -15.483  0.00  0.00    +0.049 A 
ATOM      5  C   UNK A   1     -10.618   1.570 -15.906  0.00  0.00    +0.140 A 
ATOM      6  C   UNK A   1     -11.262   1.578 -17.146  0.00  0.00    +0.108 A 
ENDROOT
BRANCH   5   7
ATOM      7  O   UNK A   1     -10.623   2.691 -15.123  0.00  0.00    -0.505 OA
ATOM      8  H   UNK A   1     -10.809   2.428 -14.205  0.00  0.00    +0.292 HD
ENDBRANCH   5   7
BRANCH   6   9
ATOM      9  C   UNK A   1     -12.025   2.791 -17.636  0.00  0.00    +0.214 C 
BRANCH   9  10
ATOM     10  O   UNK A   1     -11.267   4.002 -17.604  0.00  0.00    -0.389 OA
ATOM     11  H   UNK A   1     -11.869   4.679 -17.239  0.00  0.00    +0.210 HD
ENDBRANCH   9  10
ENDBRANCH   6   9
TORSDOF 3
ENDMDL
MODEL 4
REMARK VINA RESULT:      -4.5     12.696     13.770
REMARK  Name = min_compound1.pdb
REMARK  3 active torsions:
REMARK  status: ('A' for Active; 'I' for Inactive)
REMARK    1  A    between atoms: _2  and  _7
REMARK    2  A    between atoms: _3  and  _9
REMARK    3  A    between atoms: _7  and  _8
REMARK                            x       y       z     vdW  Elec       q    Type
REMARK                         _______ _______ _______ _____ _____    ______ ____
ROOT
ATOM      1  N   UNK A   1     -14.264  -0.037  -2.979  0.00  0.00    -0.254 NA
ATOM      2  C   UNK A   0     -13.975   1.169  -3.517  0.00  0.00    +0.111 A 
ATOM      3  C   UNK A   0     -13.887   1.402  -4.879  0.00  0.00    +0.023 A 
ATOM      4  C   UNK A   1     -14.107   0.338  -5.748  0.00  0.00    +0.049 A 
ATOM      5  C   UNK A   1     -14.402  -0.914  -5.219  0.00  0.00    +0.140 A 
ATOM      6  C   UNK A   1     -14.465  -1.077  -3.832  0.00  0.00    +0.108 A 
ENDROOT
BRANCH   5   7
ATOM      7  O   UNK A   1     -14.618  -1.982  -6.046  0.00  0.00    -0.505 OA
ATOM      8  H   UNK A   1     -14.564  -2.798  -5.519  0.00  0.00    +0.292 HD
ENDBRANCH   5   7
BRANCH   6   9
ATOM      9  C   UNK A   1     -14.823  -2.408  -3.206  0.00  0.00    +0.214 C 
BRANCH   9  10
ATOM     10  O   UNK A   1     -16.197  -2.770  -3.361  0.00  0.00    -0.389 OA
ATOM     11  H   UNK A   1     -16.628  -2.533  -2.518  0.00  0.00    +0.210 HD
ENDBRANCH   9  10
ENDBRANCH   6   9
TORSDOF 3
ENDMDL
MODEL 5
REMARK VINA RESULT:      -4.5      1.712      2.105
REMARK  Name = min_compound1.pdb
REMARK  3 active torsions:
REMARK  status: ('A' for Active; 'I' for Inactive)
REMARK    1  A    between atoms: _2  and  _7
REMARK    2  A    between atoms: _3  and  _9
REMARK    3  A    between atoms: _7  and  _8
REMARK                            x       y       z     vdW  Elec       q    Type
REMARK                         _______ _______ _______ _____ _____    ______ ____
ROOT
ATOM      1  N   UNK A   1     -10.681   1.492 -15.514  0.00  0.00    -0.254 NA
ATOM      2  C   UNK A   0      -9.985   0.336 -15.464  0.00  0.00    +0.111 A 
ATOM      3  C   UNK A   0      -9.979  -0.603 -16.482  0.00  0.00    +0.023 A 
ATOM      4  C   UNK A   1     -10.731  -0.347 -17.623  0.00  0.00    +0.049 A 
ATOM      5  C   UNK A   1     -11.460   0.836 -17.698  0.00  0.00    +0.140 A 
ATOM      6  C   UNK A   1     -11.426   1.734 -16.627  0.00  0.00    +0.108 A 
ENDROOT
BRANCH   5   7
ATOM      7  O   UNK A   1     -12.215   1.115 -18.804  0.00  0.00    -0.505 OA
ATOM      8  H   UNK A   1     -11.753   0.775 -19.589  0.00  0.00    +0.292 HD
ENDBRANCH   5   7
BRANCH   6   9
ATOM      9  C   UNK A   1     -12.167   3.053 -16.675  0.00  0.00    +0.214 C 
BRANCH   9  10
ATOM     10  O   UNK A   1     -11.848   3.856 -17.813  0.00  0.00    -0.389 OA
ATOM     11  H   UNK A   1     -11.086   3.418 -18.238  0.00  0.00    +0.210 HD
ENDBRANCH   9  10
ENDBRANCH   6   9
TORSDOF 3
ENDMDL
MODEL 6
REMARK VINA RESULT:      -4.4     11.844     12.652
REMARK  Name = min_compound1.pdb
REMARK  3 active torsions:
REMARK  status: ('A' for Active; 'I' for Inactive)
REMARK    1  A    between atoms: _2  and  _7
REMARK    2  A    between atoms: _3  and  _9
REMARK    3  A    between atoms: _7  and  _8
REMARK                            x       y       z     vdW  Elec       q    Type
REMARK                         _______ _______ _______ _____ _____    ______ ____
ROOT
ATOM      1  N   UNK A   1     -14.058   1.304  -4.619  0.00  0.00    -0.254 NA
ATOM      2  C   UNK A   0     -14.061   0.895  -3.331  0.00  0.00    +0.111 A 
ATOM      3  C   UNK A   0     -14.284  -0.414  -2.940  0.00  0.00    +0.023 A 
ATOM      4  C   UNK A   1     -14.518  -1.368  -3.925  0.00  0.00    +0.049 A 
ATOM      5  C   UNK A   1     -14.523  -0.972  -5.259  0.00  0.00    +0.140 A 
ATOM      6  C   UNK A   1     -14.300   0.370  -5.579  0.00  0.00    +0.108 A 
ENDROOT
BRANCH   5   7
ATOM      7  O   UNK A   1     -14.757  -1.884  -6.251  0.00  0.00    -0.505 OA
ATOM      8  H   UNK A   1     -14.996  -1.405  -7.063  0.00  0.00    +0.292 HD
ENDBRANCH   5   7
BRANCH   6   9
ATOM      9  C   UNK A   1     -14.254   0.845  -7.015  0.00  0.00    +0.214 C 
BRANCH   9  10
ATOM     10  O   UNK A   1     -15.502   0.734  -7.702  0.00  0.00    -0.389 OA
ATOM     11  H   UNK A   1     -15.584   1.548  -8.233  0.00  0.00    +0.210 HD
ENDBRANCH   9  10
ENDBRANCH   6   9
TORSDOF 3
ENDMDL
MODEL 7
REMARK VINA RESULT:      -4.3     11.295     11.961
REMARK  Name = min_compound1.pdb
REMARK  3 active torsions:
REMARK  status: ('A' for Active; 'I' for Inactive)
REMARK    1  A    between atoms: _2  and  _7
REMARK    2  A    between atoms: _3  and  _9
REMARK    3  A    between atoms: _7  and  _8
REMARK                            x       y       z     vdW  Elec       q    Type
REMARK                         _______ _______ _______ _____ _____    ______ ____
ROOT
ATOM      1  N   UNK A   1     -15.439   1.505  -6.762  0.00  0.00    -0.254 NA
ATOM      2  C   UNK A   0     -16.417   1.367  -7.684  0.00  0.00    +0.111 A 
ATOM      3  C   UNK A   0     -16.864   0.144  -8.154  0.00  0.00    +0.023 A 
ATOM      4  C   UNK A   1     -16.278  -1.013  -7.650  0.00  0.00    +0.049 A 
ATOM      5  C   UNK A   1     -15.266  -0.897  -6.702  0.00  0.00    +0.140 A 
ATOM      6  C   UNK A   1     -14.859   0.371  -6.281  0.00  0.00    +0.108 A 
ENDROOT
BRANCH   5   7
ATOM      7  O   UNK A   1     -14.665  -2.015  -6.191  0.00  0.00    -0.505 OA
ATOM      8  H   UNK A   1     -14.756  -2.001  -5.222  0.00  0.00    +0.292 HD
ENDBRANCH   5   7
BRANCH   6   9
ATOM      9  C   UNK A   1     -13.793   0.552  -5.222  0.00  0.00    +0.214 C 
BRANCH   9  10
ATOM     10  O   UNK A   1     -14.105  -0.073  -3.975  0.00  0.00    -0.389 OA
ATOM     11  H   UNK A   1     -14.657   0.569  -3.489  0.00  0.00    +0.210 HD
ENDBRANCH   9  10
ENDBRANCH   6   9
TORSDOF 3
ENDMDL
MODEL 8
REMARK VINA RESULT:      -4.3     12.155     13.019
REMARK  Name = min_compound1.pdb
REMARK  3 active torsions:
REMARK  status: ('A' for Active; 'I' for Inactive)
REMARK    1  A    between atoms: _2  and  _7
REMARK    2  A    between atoms: _3  and  _9
REMARK    3  A    between atoms: _7  and  _8
REMARK                            x       y       z     vdW  Elec       q    Type
REMARK                         _______ _______ _______ _____ _____    ______ ____
ROOT
ATOM      1  N   UNK A   1     -14.346   1.138  -5.634  0.00  0.00    -0.254 NA
ATOM      2  C   UNK A   0     -13.887   1.789  -4.543  0.00  0.00    +0.111 A 
ATOM      3  C   UNK A   0     -13.744   1.200  -3.299  0.00  0.00    +0.023 A 
ATOM      4  C   UNK A   1     -14.090  -0.140  -3.157  0.00  0.00    +0.049 A 
ATOM      5  C   UNK A   1     -14.569  -0.832  -4.265  0.00  0.00    +0.140 A 
ATOM      6  C   UNK A   1     -14.696  -0.170  -5.488  0.00  0.00    +0.108 A 
ENDROOT
BRANCH   5   7
ATOM      7  O   UNK A   1     -14.924  -2.149  -4.158  0.00  0.00    -0.505 OA
ATOM      8  H   UNK A   1     -15.878  -2.199  -3.975  0.00  0.00    +0.292 HD
ENDBRANCH   5   7
BRANCH   6   9
ATOM      9  C   UNK A   1     -15.172  -0.887  -6.733  0.00  0.00    +0.214 C 
BRANCH   9  10
ATOM     10  O   UNK A   1     -16.464  -1.482  -6.600  0.00  0.00    -0.389 OA
ATOM     11  H   UNK A   1     -16.419  -2.323  -7.094  0.00  0.00    +0.210 HD
ENDBRANCH   9  10
ENDBRANCH   6   9
TORSDOF 3
ENDMDL
MODEL 9
REMARK VINA RESULT:      -4.3     14.239     14.469
REMARK  Name = min_compound1.pdb
REMARK  3 active torsions:
REMARK  status: ('A' for Active; 'I' for Inactive)
REMARK    1  A    between atoms: _2  and  _7
REMARK    2  A    between atoms: _3  and  _9
REMARK    3  A    between atoms: _7  and  _8
REMARK                            x       y       z     vdW  Elec       q    Type
REMARK                         _______ _______ _______ _____ _____    ______ ____
ROOT
ATOM      1  N   UNK A   1     -16.286   0.941  -3.688  0.00  0.00    -0.254 NA
ATOM      2  C   UNK A   0     -15.709  -0.206  -3.267  0.00  0.00    +0.111 A 
ATOM      3  C   UNK A   0     -14.356  -0.334  -3.002  0.00  0.00    +0.023 A 
ATOM      4  C   UNK A   1     -13.539   0.778  -3.178  0.00  0.00    +0.049 A 
ATOM      5  C   UNK A   1     -14.109   1.970  -3.614  0.00  0.00    +0.140 A 
ATOM      6  C   UNK A   1     -15.481   2.023  -3.870  0.00  0.00    +0.108 A 
ENDROOT
BRANCH   5   7
ATOM      7  O   UNK A   1     -13.332   3.080  -3.802  0.00  0.00    -0.505 OA
ATOM      8  H   UNK A   1     -12.397   2.814  -3.768  0.00  0.00    +0.292 HD
ENDBRANCH   5   7
BRANCH   6   9
ATOM      9  C   UNK A   1     -16.158   3.305  -4.307  0.00  0.00    +0.214 C 
BRANCH   9  10
ATOM     10  O   UNK A   1     -15.645   4.476  -3.667  0.00  0.00    -0.389 OA
ATOM     11  H   UNK A   1     -15.243   4.167  -2.834  0.00  0.00    +0.210 HD
ENDBRANCH   9  10
ENDBRANCH   6   9
TORSDOF 3
ENDMDL
