MODEL 1
REMARK VINA RESULT:      -8.0      0.000      0.000
REMARK  Name = min_compound982.pdb
REMARK  0 active torsions:
REMARK  status: ('A' for Active; 'I' for Inactive)
REMARK                            x       y       z     vdW  Elec       q    Type
REMARK                         _______ _______ _______ _____ _____    ______ ____
ROOT
ATOM      1  C   UNL     1     -12.333   5.536 -18.085  0.00  0.00    +0.040 C 
ATOM      2  C   UNL     1     -13.487   6.210 -17.398  0.00  0.00    -0.040 A 
ATOM      3  C   UNL     1     -13.712   7.565 -17.741  0.00  0.00    +0.004 A 
ATOM      4  C   UNL     1     -14.718   8.313 -17.145  0.00  0.00    +0.000 A 
ATOM      5  C   UNL     1     -15.531   7.715 -16.203  0.00  0.00    +0.000 A 
ATOM      6  C   UNL     1     -15.331   6.372 -15.871  0.00  0.00    +0.008 A 
ATOM      7  C   UNL     1     -14.301   5.571 -16.441  0.00  0.00    +0.004 A 
ATOM      8  C   UNL     1     -14.223   4.078 -16.014  0.00  0.00    +0.168 C 
ATOM      9  C   UNL     1     -14.378   3.923 -14.475  0.00  0.00    +0.099 C 
ATOM     10  C   UNL     1     -15.770   3.429 -14.319  0.00  0.00    +0.034 C 
ATOM     11  C   UNL     1     -16.459   3.260 -13.184  0.00  0.00    +0.019 C 
ATOM     12  C   UNL     1     -16.345   3.160 -15.649  0.00  0.00    +0.336 C 
ATOM     13  O   UNL     1     -17.447   2.690 -15.870  0.00  0.00    -0.245 OA
ATOM     14  O   UNL     1     -15.432   3.505 -16.590  0.00  0.00    -0.445 OA
ATOM     15  C   UNL     1     -13.069   3.127 -16.434  0.00  0.00    +0.004 A 
ATOM     16  C   UNL     1     -13.302   1.727 -16.336  0.00  0.00    +0.008 A 
ATOM     17  C   UNL     1     -12.301   0.775 -16.541  0.00  0.00    +0.000 A 
ATOM     18  C   UNL     1     -11.019   1.187 -16.855  0.00  0.00    +0.000 A 
ATOM     19  C   UNL     1     -10.756   2.545 -16.985  0.00  0.00    +0.004 A 
ATOM     20  C   UNL     1     -11.764   3.518 -16.792  0.00  0.00    -0.040 A 
ATOM     21  C   UNL     1     -11.384   4.945 -17.056  0.00  0.00    +0.040 C 
ENDROOT
TORSDOF 0
ENDMDL
MODEL 2
REMARK VINA RESULT:      -7.6     12.722     14.563
REMARK  Name = min_compound982.pdb
REMARK  0 active torsions:
REMARK  status: ('A' for Active; 'I' for Inactive)
REMARK                            x       y       z     vdW  Elec       q    Type
REMARK                         _______ _______ _______ _____ _____    ______ ____
ROOT
ATOM      1  C   UNL     1     -17.194   1.805  -4.349  0.00  0.00    +0.040 C 
ATOM      2  C   UNL     1     -15.782   1.556  -3.897  0.00  0.00    -0.040 A 
ATOM      3  C   UNL     1     -14.898   2.659  -3.979  0.00  0.00    +0.004 A 
ATOM      4  C   UNL     1     -13.558   2.549  -3.635  0.00  0.00    +0.000 A 
ATOM      5  C   UNL     1     -13.078   1.335  -3.185  0.00  0.00    +0.000 A 
ATOM      6  C   UNL     1     -13.946   0.245  -3.080  0.00  0.00    +0.008 A 
ATOM      7  C   UNL     1     -15.323   0.304  -3.440  0.00  0.00    +0.004 A 
ATOM      8  C   UNL     1     -16.184  -0.972  -3.227  0.00  0.00    +0.168 C 
ATOM      9  C   UNL     1     -15.444  -2.242  -3.734  0.00  0.00    +0.099 C 
ATOM     10  C   UNL     1     -14.980  -2.891  -2.481  0.00  0.00    +0.034 C 
ATOM     11  C   UNL     1     -14.173  -3.950  -2.354  0.00  0.00    +0.019 C 
ATOM     12  C   UNL     1     -15.530  -2.163  -1.321  0.00  0.00    +0.336 C 
ATOM     13  O   UNL     1     -15.389  -2.472  -0.152  0.00  0.00    -0.245 OA
ATOM     14  O   UNL     1     -16.236  -1.100  -1.777  0.00  0.00    -0.445 OA
ATOM     15  C   UNL     1     -17.654  -1.102  -3.711  0.00  0.00    +0.004 A 
ATOM     16  C   UNL     1     -18.453  -2.122  -3.121  0.00  0.00    +0.008 A 
ATOM     17  C   UNL     1     -19.737  -2.437  -3.571  0.00  0.00    +0.000 A 
ATOM     18  C   UNL     1     -20.277  -1.739  -4.636  0.00  0.00    +0.000 A 
ATOM     19  C   UNL     1     -19.539  -0.720  -5.225  0.00  0.00    +0.004 A 
ATOM     20  C   UNL     1     -18.244  -0.384  -4.769  0.00  0.00    -0.040 A 
ATOM     21  C   UNL     1     -17.585   0.798  -5.417  0.00  0.00    +0.040 C 
ENDROOT
TORSDOF 0
ENDMDL
MODEL 3
REMARK VINA RESULT:      -7.6      1.278      4.614
REMARK  Name = min_compound982.pdb
REMARK  0 active torsions:
REMARK  status: ('A' for Active; 'I' for Inactive)
REMARK                            x       y       z     vdW  Elec       q    Type
REMARK                         _______ _______ _______ _____ _____    ______ ____
ROOT
ATOM      1  C   UNL     1     -11.495   5.781 -17.337  0.00  0.00    +0.040 C 
ATOM      2  C   UNL     1     -11.623   4.366 -16.849  0.00  0.00    -0.040 A 
ATOM      3  C   UNL     1     -10.467   3.557 -16.973  0.00  0.00    +0.004 A 
ATOM      4  C   UNL     1     -10.467   2.220 -16.601  0.00  0.00    +0.000 A 
ATOM      5  C   UNL     1     -11.620   1.668 -16.080  0.00  0.00    +0.000 A 
ATOM      6  C   UNL     1     -12.761   2.462 -15.933  0.00  0.00    +0.008 A 
ATOM      7  C   UNL     1     -12.815   3.832 -16.319  0.00  0.00    +0.004 A 
ATOM      8  C   UNL     1     -14.136   4.609 -16.055  0.00  0.00    +0.168 C 
ATOM      9  C   UNL     1     -15.376   3.774 -16.482  0.00  0.00    +0.099 C 
ATOM     10  C   UNL     1     -15.926   3.293 -15.190  0.00  0.00    +0.034 C 
ATOM     11  C   UNL     1     -16.920   2.418 -14.994  0.00  0.00    +0.019 C 
ATOM     12  C   UNL     1     -15.180   3.914 -14.079  0.00  0.00    +0.336 C 
ATOM     13  O   UNL     1     -15.419   3.777 -12.893  0.00  0.00    -0.245 OA
ATOM     14  O   UNL     1     -14.193   4.681 -14.601  0.00  0.00    -0.445 OA
ATOM     15  C   UNL     1     -14.391   6.056 -16.557  0.00  0.00    +0.004 A 
ATOM     16  C   UNL     1     -15.432   6.796 -15.927  0.00  0.00    +0.008 A 
ATOM     17  C   UNL     1     -15.857   8.046 -16.383  0.00  0.00    +0.000 A 
ATOM     18  C   UNL     1     -15.253   8.610 -17.492  0.00  0.00    +0.000 A 
ATOM     19  C   UNL     1     -14.217   7.932 -18.120  0.00  0.00    +0.004 A 
ATOM     20  C   UNL     1     -13.770   6.672 -17.661  0.00  0.00    -0.040 A 
ATOM     21  C   UNL     1     -12.579   6.082 -18.358  0.00  0.00    +0.040 C 
ENDROOT
TORSDOF 0
ENDMDL
MODEL 4
REMARK VINA RESULT:      -7.5      1.674      4.376
REMARK  Name = min_compound982.pdb
REMARK  0 active torsions:
REMARK  status: ('A' for Active; 'I' for Inactive)
REMARK                            x       y       z     vdW  Elec       q    Type
REMARK                         _______ _______ _______ _____ _____    ______ ____
ROOT
ATOM      1  C   UNL     1     -15.096   6.676 -16.437  0.00  0.00    +0.040 C 
ATOM      2  C   UNL     1     -13.843   6.366 -17.206  0.00  0.00    -0.040 A 
ATOM      3  C   UNL     1     -13.240   7.456 -17.879  0.00  0.00    +0.004 A 
ATOM      4  C   UNL     1     -12.104   7.295 -18.660  0.00  0.00    +0.000 A 
ATOM      5  C   UNL     1     -11.538   6.041 -18.772  0.00  0.00    +0.000 A 
ATOM      6  C   UNL     1     -12.113   4.961 -18.095  0.00  0.00    +0.008 A 
ATOM      7  C   UNL     1     -13.289   5.074 -17.299  0.00  0.00    +0.004 A 
ATOM      8  C   UNL     1     -13.792   3.800 -16.564  0.00  0.00    +0.168 C 
ATOM      9  C   UNL     1     -13.773   2.562 -17.505  0.00  0.00    +0.099 C 
ATOM     10  C   UNL     1     -12.578   1.806 -17.051  0.00  0.00    +0.034 C 
ATOM     11  C   UNL     1     -12.025   0.726 -17.615  0.00  0.00    +0.019 C 
ATOM     12  C   UNL     1     -12.023   2.447 -15.844  0.00  0.00    +0.336 C 
ATOM     13  O   UNL     1     -11.080   2.042 -15.189  0.00  0.00    -0.245 OA
ATOM     14  O   UNL     1     -12.753   3.556 -15.573  0.00  0.00    -0.445 OA
ATOM     15  C   UNL     1     -15.136   3.735 -15.787  0.00  0.00    +0.004 A 
ATOM     16  C   UNL     1     -15.297   2.685 -14.840  0.00  0.00    +0.008 A 
ATOM     17  C   UNL     1     -16.506   2.431 -14.188  0.00  0.00    +0.000 A 
ATOM     18  C   UNL     1     -17.608   3.222 -14.458  0.00  0.00    +0.000 A 
ATOM     19  C   UNL     1     -17.485   4.273 -15.359  0.00  0.00    +0.004 A 
ATOM     20  C   UNL     1     -16.263   4.547 -16.015  0.00  0.00    -0.040 A 
ATOM     21  C   UNL     1     -16.226   5.766 -16.890  0.00  0.00    +0.040 C 
ENDROOT
TORSDOF 0
ENDMDL
MODEL 5
REMARK VINA RESULT:      -7.5     12.472     14.475
REMARK  Name = min_compound982.pdb
REMARK  0 active torsions:
REMARK  status: ('A' for Active; 'I' for Inactive)
REMARK                            x       y       z     vdW  Elec       q    Type
REMARK                         _______ _______ _______ _____ _____    ______ ____
ROOT
ATOM      1  C   UNL     1     -17.514   0.959  -5.471  0.00  0.00    +0.040 C 
ATOM      2  C   UNL     1     -18.220  -0.224  -4.871  0.00  0.00    -0.040 A 
ATOM      3  C   UNL     1     -19.490  -0.534  -5.415  0.00  0.00    +0.004 A 
ATOM      4  C   UNL     1     -20.264  -1.575  -4.920  0.00  0.00    +0.000 A 
ATOM      5  C   UNL     1     -19.775  -2.339  -3.880  0.00  0.00    +0.000 A 
ATOM      6  C   UNL     1     -18.513  -2.056  -3.349  0.00  0.00    +0.008 A 
ATOM      7  C   UNL     1     -17.693  -0.987  -3.810  0.00  0.00    +0.004 A 
ATOM      8  C   UNL     1     -16.291  -0.815  -3.159  0.00  0.00    +0.168 C 
ATOM      9  C   UNL     1     -16.369  -0.941  -1.611  0.00  0.00    +0.099 C 
ATOM     10  C   UNL     1     -15.828  -2.300  -1.351  0.00  0.00    +0.034 C 
ATOM     11  C   UNL     1     -15.798  -2.963  -0.189  0.00  0.00    +0.019 C 
ATOM     12  C   UNL     1     -15.322  -2.874  -2.611  0.00  0.00    +0.336 C 
ATOM     13  O   UNL     1     -14.762  -3.949  -2.733  0.00  0.00    -0.245 OA
ATOM     14  O   UNL     1     -15.568  -1.996  -3.613  0.00  0.00    -0.445 OA
ATOM     15  C   UNL     1     -15.354   0.388  -3.452  0.00  0.00    +0.004 A 
ATOM     16  C   UNL     1     -13.974   0.239  -3.133  0.00  0.00    +0.008 A 
ATOM     17  C   UNL     1     -13.060   1.292  -3.210  0.00  0.00    +0.000 A 
ATOM     18  C   UNL     1     -13.491   2.544  -3.612  0.00  0.00    +0.000 A 
ATOM     19  C   UNL     1     -14.825   2.725  -3.956  0.00  0.00    +0.004 A 
ATOM     20  C   UNL     1     -15.757   1.663  -3.894  0.00  0.00    -0.040 A 
ATOM     21  C   UNL     1     -17.146   1.954  -4.383  0.00  0.00    +0.040 C 
ENDROOT
TORSDOF 0
ENDMDL
MODEL 6
REMARK VINA RESULT:      -7.3      9.964     13.055
REMARK  Name = min_compound982.pdb
REMARK  0 active torsions:
REMARK  status: ('A' for Active; 'I' for Inactive)
REMARK                            x       y       z     vdW  Elec       q    Type
REMARK                         _______ _______ _______ _____ _____    ______ ____
ROOT
ATOM      1  C   UNL     1     -13.993  -0.272  -5.382  0.00  0.00    +0.040 C 
ATOM      2  C   UNL     1     -15.067   0.473  -6.123  0.00  0.00    -0.040 A 
ATOM      3  C   UNL     1     -14.655   1.168  -7.286  0.00  0.00    +0.004 A 
ATOM      4  C   UNL     1     -15.541   1.931  -8.034  0.00  0.00    +0.000 A 
ATOM      5  C   UNL     1     -16.863   2.001  -7.643  0.00  0.00    +0.000 A 
ATOM      6  C   UNL     1     -17.285   1.302  -6.509  0.00  0.00    +0.008 A 
ATOM      7  C   UNL     1     -16.410   0.523  -5.699  0.00  0.00    +0.004 A 
ATOM      8  C   UNL     1     -17.025  -0.240  -4.492  0.00  0.00    +0.168 C 
ATOM      9  C   UNL     1     -18.002   0.665  -3.691  0.00  0.00    +0.099 C 
ATOM     10  C   UNL     1     -19.341   0.176  -4.107  0.00  0.00    +0.034 C 
ATOM     11  C   UNL     1     -20.536   0.703  -3.815  0.00  0.00    +0.019 C 
ATOM     12  C   UNL     1     -19.183  -1.019  -4.956  0.00  0.00    +0.336 C 
ATOM     13  O   UNL     1     -20.086  -1.696  -5.412  0.00  0.00    -0.245 OA
ATOM     14  O   UNL     1     -17.858  -1.251  -5.129  0.00  0.00    -0.445 OA
ATOM     15  C   UNL     1     -16.174  -1.002  -3.439  0.00  0.00    +0.004 A 
ATOM     16  C   UNL     1     -16.836  -1.977  -2.640  0.00  0.00    +0.008 A 
ATOM     17  C   UNL     1     -16.222  -2.620  -1.564  0.00  0.00    +0.000 A 
ATOM     18  C   UNL     1     -14.911  -2.315  -1.243  0.00  0.00    +0.000 A 
ATOM     19  C   UNL     1     -14.222  -1.387  -2.013  0.00  0.00    +0.004 A 
ATOM     20  C   UNL     1     -14.830  -0.738  -3.112  0.00  0.00    -0.040 A 
ATOM     21  C   UNL     1     -13.957   0.169  -3.929  0.00  0.00    +0.040 C 
ENDROOT
TORSDOF 0
ENDMDL
MODEL 7
REMARK VINA RESULT:      -7.2      2.501      4.536
REMARK  Name = min_compound982.pdb
REMARK  0 active torsions:
REMARK  status: ('A' for Active; 'I' for Inactive)
REMARK                            x       y       z     vdW  Elec       q    Type
REMARK                         _______ _______ _______ _____ _____    ______ ____
ROOT
ATOM      1  C   UNL     1     -16.841   3.412 -16.911  0.00  0.00    +0.040 C 
ATOM      2  C   UNL     1     -16.087   3.746 -15.655  0.00  0.00    -0.040 A 
ATOM      3  C   UNL     1     -16.874   4.034 -14.514  0.00  0.00    +0.004 A 
ATOM      4  C   UNL     1     -16.301   4.399 -13.303  0.00  0.00    +0.000 A 
ATOM      5  C   UNL     1     -14.926   4.468 -13.205  0.00  0.00    +0.000 A 
ATOM      6  C   UNL     1     -14.138   4.165 -14.320  0.00  0.00    +0.008 A 
ATOM      7  C   UNL     1     -14.681   3.805 -15.587  0.00  0.00    +0.004 A 
ATOM      8  C   UNL     1     -13.686   3.449 -16.727  0.00  0.00    +0.168 C 
ATOM      9  C   UNL     1     -12.519   4.473 -16.798  0.00  0.00    +0.099 C 
ATOM     10  C   UNL     1     -11.382   3.740 -16.186  0.00  0.00    +0.034 C 
ATOM     11  C   UNL     1     -10.169   4.214 -15.877  0.00  0.00    +0.019 C 
ATOM     12  C   UNL     1     -11.786   2.347 -15.919  0.00  0.00    +0.336 C 
ATOM     13  O   UNL     1     -11.069   1.468 -15.476  0.00  0.00    -0.245 OA
ATOM     14  O   UNL     1     -13.088   2.203 -16.267  0.00  0.00    -0.445 OA
ATOM     15  C   UNL     1     -14.126   3.186 -18.194  0.00  0.00    +0.004 A 
ATOM     16  C   UNL     1     -13.216   2.486 -19.036  0.00  0.00    +0.008 A 
ATOM     17  C   UNL     1     -13.428   2.318 -20.406  0.00  0.00    +0.000 A 
ATOM     18  C   UNL     1     -14.565   2.844 -20.992  0.00  0.00    +0.000 A 
ATOM     19  C   UNL     1     -15.490   3.513 -20.199  0.00  0.00    +0.004 A 
ATOM     20  C   UNL     1     -15.292   3.678 -18.809  0.00  0.00    -0.040 A 
ATOM     21  C   UNL     1     -16.405   4.330 -18.041  0.00  0.00    +0.040 C 
ENDROOT
TORSDOF 0
ENDMDL
MODEL 8
REMARK VINA RESULT:      -7.0      2.139      4.314
REMARK  Name = min_compound982.pdb
REMARK  0 active torsions:
REMARK  status: ('A' for Active; 'I' for Inactive)
REMARK                            x       y       z     vdW  Elec       q    Type
REMARK                         _______ _______ _______ _____ _____    ______ ____
ROOT
ATOM      1  C   UNL     1     -14.688   3.266 -15.240  0.00  0.00    +0.040 C 
ATOM      2  C   UNL     1     -15.304   4.349 -16.080  0.00  0.00    -0.040 A 
ATOM      3  C   UNL     1     -16.610   4.755 -15.713  0.00  0.00    +0.004 A 
ATOM      4  C   UNL     1     -17.308   5.714 -16.434  0.00  0.00    +0.000 A 
ATOM      5  C   UNL     1     -16.705   6.300 -17.529  0.00  0.00    +0.000 A 
ATOM      6  C   UNL     1     -15.408   5.922 -17.888  0.00  0.00    +0.008 A 
ATOM      7  C   UNL     1     -14.662   4.930 -17.191  0.00  0.00    +0.004 A 
ATOM      8  C   UNL     1     -13.211   4.642 -17.672  0.00  0.00    +0.168 C 
ATOM      9  C   UNL     1     -13.143   4.525 -19.221  0.00  0.00    +0.099 C 
ATOM     10  C   UNL     1     -12.545   5.819 -19.636  0.00  0.00    +0.034 C 
ATOM     11  C   UNL     1     -12.391   6.293 -20.878  0.00  0.00    +0.019 C 
ATOM     12  C   UNL     1     -12.142   6.579 -18.438  0.00  0.00    +0.336 C 
ATOM     13  O   UNL     1     -11.568   7.652 -18.431  0.00  0.00    -0.245 OA
ATOM     14  O   UNL     1     -12.502   5.871 -17.339  0.00  0.00    -0.445 OA
ATOM     15  C   UNL     1     -12.337   3.489 -17.108  0.00  0.00    +0.004 A 
ATOM     16  C   UNL     1     -10.930   3.570 -17.314  0.00  0.00    +0.008 A 
ATOM     17  C   UNL     1     -10.055   2.532 -16.989  0.00  0.00    +0.000 A 
ATOM     18  C   UNL     1     -10.554   1.364 -16.440  0.00  0.00    +0.000 A 
ATOM     19  C   UNL     1     -11.918   1.254 -16.201  0.00  0.00    +0.004 A 
ATOM     20  C   UNL     1     -12.812   2.304 -16.515  0.00  0.00    -0.040 A 
ATOM     21  C   UNL     1     -14.247   2.109 -16.120  0.00  0.00    +0.040 C 
ENDROOT
TORSDOF 0
ENDMDL
MODEL 9
REMARK VINA RESULT:      -6.9      2.069      5.814
REMARK  Name = min_compound982.pdb
REMARK  0 active torsions:
REMARK  status: ('A' for Active; 'I' for Inactive)
REMARK                            x       y       z     vdW  Elec       q    Type
REMARK                         _______ _______ _______ _____ _____    ______ ____
ROOT
ATOM      1  C   UNL     1     -14.153   3.251 -15.391  0.00  0.00    +0.040 C 
ATOM      2  C   UNL     1     -12.779   3.264 -16.000  0.00  0.00    -0.040 A 
ATOM      3  C   UNL     1     -11.853   2.334 -15.469  0.00  0.00    +0.004 A 
ATOM      4  C   UNL     1     -10.539   2.275 -15.913  0.00  0.00    +0.000 A 
ATOM      5  C   UNL     1     -10.129   3.136 -16.911  0.00  0.00    +0.000 A 
ATOM      6  C   UNL     1     -11.040   4.045 -17.457  0.00  0.00    +0.008 A 
ATOM      7  C   UNL     1     -12.391   4.155 -17.020  0.00  0.00    +0.004 A 
ATOM      8  C   UNL     1     -13.307   5.178 -17.749  0.00  0.00    +0.168 C 
ATOM      9  C   UNL     1     -12.585   6.540 -17.948  0.00  0.00    +0.099 C 
ATOM     10  C   UNL     1     -12.217   6.525 -19.387  0.00  0.00    +0.034 C 
ATOM     11  C   UNL     1     -11.455   7.404 -20.050  0.00  0.00    +0.019 C 
ATOM     12  C   UNL     1     -12.805   5.335 -20.030  0.00  0.00    +0.336 C 
ATOM     13  O   UNL     1     -12.741   5.058 -21.214  0.00  0.00    -0.245 OA
ATOM     14  O   UNL     1     -13.446   4.608 -19.082  0.00  0.00    -0.445 OA
ATOM     15  C   UNL     1     -14.752   5.514 -17.286  0.00  0.00    +0.004 A 
ATOM     16  C   UNL     1     -15.618   6.132 -18.231  0.00  0.00    +0.008 A 
ATOM     17  C   UNL     1     -16.884   6.615 -17.896  0.00  0.00    +0.000 A 
ATOM     18  C   UNL     1     -17.339   6.499 -16.595  0.00  0.00    +0.000 A 
ATOM     19  C   UNL     1     -16.533   5.880 -15.647  0.00  0.00    +0.004 A 
ATOM     20  C   UNL     1     -15.254   5.375 -15.978  0.00  0.00    -0.040 A 
ATOM     21  C   UNL     1     -14.519   4.640 -14.896  0.00  0.00    +0.040 C 
ENDROOT
TORSDOF 0
ENDMDL
