MODEL 1
REMARK VINA RESULT:      -7.6      0.000      0.000
REMARK  Name = min_compound996.pdb
REMARK  5 active torsions:
REMARK  status: ('A' for Active; 'I' for Inactive)
REMARK    1  A    between atoms: _2  and  _9
REMARK    2  A    between atoms: _2  and  _19
REMARK    3  A    between atoms: _10  and  _19
REMARK    4  A    between atoms: _19  and  _20
REMARK    5  A    between atoms: _19  and  _21
REMARK                            x       y       z     vdW  Elec       q    Type
REMARK                         _______ _______ _______ _____ _____    ______ ____
ROOT
ATOM      1  S   UNL     1     -14.699   2.723 -16.454  0.00  0.00    -0.013 S 
ENDROOT
BRANCH   1   2
ATOM      2  C   UNL     1     -12.940   2.852 -16.291  0.00  0.00    +0.124 A 
ATOM      3  C   UNL     1     -12.175   1.688 -16.336  0.00  0.00    +0.097 A 
ATOM      4  C   UNL     1     -10.776   1.842 -16.192  0.00  0.00    +0.002 A 
ATOM      5  C   UNL     1     -10.203   3.114 -16.010  0.00  0.00    +0.010 A 
ATOM      6  C   UNL     1     -11.001   4.253 -15.969  0.00  0.00    +0.003 A 
ATOM      7  C   UNL     1      -9.967   0.699 -16.236  0.00  0.00    +0.011 A 
ATOM      8  C   UNL     1     -10.538  -0.552 -16.422  0.00  0.00    +0.020 A 
ATOM      9  C   UNL     1     -11.907  -0.619 -16.556  0.00  0.00    +0.111 A 
ATOM     10  N   UNL     1     -12.718   0.461 -16.512  0.00  0.00    -0.253 NA
ATOM     11  C   UNL     1     -12.375   4.126 -16.109  0.00  0.00    +0.030 A 
ENDBRANCH   1   2
BRANCH   1  12
ATOM     12  O   UNL     1     -15.088   1.478 -15.817  0.00  0.00    -0.263 OA
ATOM     13  H   UNL     1     -15.926   1.604 -15.347  0.00  0.00    +0.244 HD
ENDBRANCH   1  12
BRANCH   1  14
ATOM     14  O   UNL     1     -14.998   2.937 -17.863  0.00  0.00    -0.263 OA
ATOM     15  H   UNL     1     -15.356   3.831 -17.985  0.00  0.00    +0.244 HD
ENDBRANCH   1  14
BRANCH   1  16
ATOM     16  O   UNL     1     -15.299   4.004 -15.636  0.00  0.00    -0.363 OA
BRANCH  16  21
ATOM     17 CL   UNL     1     -16.922   3.577 -10.013  0.00  0.00    -0.084 Cl
ATOM     18  C   UNL     1     -16.462   3.687 -11.667  0.00  0.00    +0.041 A 
ATOM     19  C   UNL     1     -17.207   3.020 -12.640  0.00  0.00    +0.023 A 
ATOM     20  C   UNL     1     -16.834   3.107 -13.984  0.00  0.00    +0.050 A 
ATOM     21  C   UNL     1     -15.709   3.852 -14.340  0.00  0.00    +0.155 A 
ATOM     22  C   UNL     1     -14.978   4.536 -13.368  0.00  0.00    +0.050 A 
ATOM     23  C   UNL     1     -15.350   4.448 -12.025  0.00  0.00    +0.023 A 
ENDBRANCH  16  21
ENDBRANCH   1  16
TORSDOF 5
ENDMDL
MODEL 2
REMARK VINA RESULT:      -7.3      1.984      2.575
REMARK  Name = min_compound996.pdb
REMARK  5 active torsions:
REMARK  status: ('A' for Active; 'I' for Inactive)
REMARK    1  A    between atoms: _2  and  _9
REMARK    2  A    between atoms: _2  and  _19
REMARK    3  A    between atoms: _10  and  _19
REMARK    4  A    between atoms: _19  and  _20
REMARK    5  A    between atoms: _19  and  _21
REMARK                            x       y       z     vdW  Elec       q    Type
REMARK                         _______ _______ _______ _____ _____    ______ ____
ROOT
ATOM      1  S   UNL     1     -13.475   3.195 -19.021  0.00  0.00    -0.013 S 
ENDROOT
BRANCH   1   2
ATOM      2  C   UNL     1     -12.180   3.292 -17.816  0.00  0.00    +0.124 A 
ATOM      3  C   UNL     1     -11.708   2.112 -17.243  0.00  0.00    +0.097 A 
ATOM      4  C   UNL     1     -10.680   2.242 -16.279  0.00  0.00    +0.002 A 
ATOM      5  C   UNL     1     -10.173   3.507 -15.929  0.00  0.00    +0.010 A 
ATOM      6  C   UNL     1     -10.671   4.662 -16.523  0.00  0.00    +0.003 A 
ATOM      7  C   UNL     1     -10.172   1.083 -15.680  0.00  0.00    +0.011 A 
ATOM      8  C   UNL     1     -10.672  -0.162 -16.035  0.00  0.00    +0.020 A 
ATOM      9  C   UNL     1     -11.672  -0.206 -16.982  0.00  0.00    +0.111 A 
ATOM     10  N   UNL     1     -12.189   0.893 -17.575  0.00  0.00    -0.253 NA
ATOM     11  C   UNL     1     -11.679   4.559 -17.471  0.00  0.00    +0.030 A 
ENDBRANCH   1   2
BRANCH   1  12
ATOM     12  O   UNL     1     -13.203   2.023 -19.833  0.00  0.00    -0.263 OA
ATOM     13  H   UNL     1     -13.628   2.124 -20.698  0.00  0.00    +0.244 HD
ENDBRANCH   1  12
BRANCH   1  14
ATOM     14  O   UNL     1     -13.551   4.506 -19.649  0.00  0.00    -0.263 OA
ATOM     15  H   UNL     1     -13.345   4.425 -20.593  0.00  0.00    +0.244 HD
ENDBRANCH   1  14
BRANCH   1  16
ATOM     16  O   UNL     1     -14.847   2.996 -18.157  0.00  0.00    -0.363 OA
BRANCH  16  21
ATOM     17 CL   UNL     1     -15.462   5.759 -13.017  0.00  0.00    -0.084 Cl
ATOM     18  C   UNL     1     -15.288   4.967 -14.534  0.00  0.00    +0.041 A 
ATOM     19  C   UNL     1     -15.440   5.693 -15.716  0.00  0.00    +0.023 A 
ATOM     20  C   UNL     1     -15.300   5.052 -16.950  0.00  0.00    +0.050 A 
ATOM     21  C   UNL     1     -15.022   3.685 -16.988  0.00  0.00    +0.155 A 
ATOM     22  C   UNL     1     -14.849   2.966 -15.805  0.00  0.00    +0.050 A 
ATOM     23  C   UNL     1     -14.990   3.606 -14.573  0.00  0.00    +0.023 A 
ENDBRANCH  16  21
ENDBRANCH   1  16
TORSDOF 5
ENDMDL
MODEL 3
REMARK VINA RESULT:      -7.3      4.211      6.179
REMARK  Name = min_compound996.pdb
REMARK  5 active torsions:
REMARK  status: ('A' for Active; 'I' for Inactive)
REMARK    1  A    between atoms: _2  and  _9
REMARK    2  A    between atoms: _2  and  _19
REMARK    3  A    between atoms: _10  and  _19
REMARK    4  A    between atoms: _19  and  _20
REMARK    5  A    between atoms: _19  and  _21
REMARK                            x       y       z     vdW  Elec       q    Type
REMARK                         _______ _______ _______ _____ _____    ______ ____
ROOT
ATOM      1  S   UNL     1     -13.832   3.181 -18.558  0.00  0.00    -0.013 S 
ENDROOT
BRANCH   1   2
ATOM      2  C   UNL     1     -13.029   4.748 -18.749  0.00  0.00    +0.124 A 
ATOM      3  C   UNL     1     -12.828   5.246 -20.035  0.00  0.00    +0.097 A 
ATOM      4  C   UNL     1     -12.174   6.497 -20.136  0.00  0.00    +0.002 A 
ATOM      5  C   UNL     1     -11.754   7.189 -18.985  0.00  0.00    +0.010 A 
ATOM      6  C   UNL     1     -11.973   6.658 -17.718  0.00  0.00    +0.003 A 
ATOM      7  C   UNL     1     -11.955   7.039 -21.409  0.00  0.00    +0.011 A 
ATOM      8  C   UNL     1     -12.378   6.354 -22.540  0.00  0.00    +0.020 A 
ATOM      9  C   UNL     1     -13.007   5.143 -22.359  0.00  0.00    +0.111 A 
ATOM     10  N   UNL     1     -13.229   4.588 -21.147  0.00  0.00    -0.253 NA
ATOM     11  C   UNL     1     -12.612   5.433 -17.595  0.00  0.00    +0.030 A 
ENDBRANCH   1   2
BRANCH   1  12
ATOM     12  O   UNL     1     -13.166   2.258 -19.459  0.00  0.00    -0.263 OA
ATOM     13  H   UNL     1     -12.610   1.652 -18.947  0.00  0.00    +0.244 HD
ENDBRANCH   1  12
BRANCH   1  14
ATOM     14  O   UNL     1     -15.259   3.429 -18.704  0.00  0.00    -0.263 OA
ATOM     15  H   UNL     1     -15.738   2.988 -17.985  0.00  0.00    +0.244 HD
ENDBRANCH   1  14
BRANCH   1  16
ATOM     16  O   UNL     1     -13.575   2.757 -17.002  0.00  0.00    -0.363 OA
BRANCH  16  21
ATOM     17 CL   UNL     1      -9.355  -1.139 -15.798  0.00  0.00    -0.084 Cl
ATOM     18  C   UNL     1     -10.579   0.019 -16.144  0.00  0.00    +0.041 A 
ATOM     19  C   UNL     1     -10.288   1.381 -16.060  0.00  0.00    +0.023 A 
ATOM     20  C   UNL     1     -11.281   2.324 -16.340  0.00  0.00    +0.050 A 
ATOM     21  C   UNL     1     -12.560   1.893 -16.689  0.00  0.00    +0.155 A 
ATOM     22  C   UNL     1     -12.844   0.531 -16.795  0.00  0.00    +0.050 A 
ATOM     23  C   UNL     1     -11.853  -0.411 -16.513  0.00  0.00    +0.023 A 
ENDBRANCH  16  21
ENDBRANCH   1  16
TORSDOF 5
ENDMDL
MODEL 4
REMARK VINA RESULT:      -7.0      2.003      3.370
REMARK  Name = min_compound996.pdb
REMARK  5 active torsions:
REMARK  status: ('A' for Active; 'I' for Inactive)
REMARK    1  A    between atoms: _2  and  _9
REMARK    2  A    between atoms: _2  and  _19
REMARK    3  A    between atoms: _10  and  _19
REMARK    4  A    between atoms: _19  and  _20
REMARK    5  A    between atoms: _19  and  _21
REMARK                            x       y       z     vdW  Elec       q    Type
REMARK                         _______ _______ _______ _____ _____    ______ ____
ROOT
ATOM      1  S   UNL     1     -15.287   3.212 -16.153  0.00  0.00    -0.013 S 
ENDROOT
BRANCH   1   2
ATOM      2  C   UNL     1     -13.602   3.738 -16.298  0.00  0.00    +0.124 A 
ATOM      3  C   UNL     1     -13.323   4.907 -17.003  0.00  0.00    +0.097 A 
ATOM      4  C   UNL     1     -11.961   5.280 -17.099  0.00  0.00    +0.002 A 
ATOM      5  C   UNL     1     -10.953   4.498 -16.506  0.00  0.00    +0.010 A 
ATOM      6  C   UNL     1     -11.273   3.336 -15.810  0.00  0.00    +0.003 A 
ATOM      7  C   UNL     1     -11.634   6.451 -17.795  0.00  0.00    +0.011 A 
ATOM      8  C   UNL     1     -12.634   7.221 -18.372  0.00  0.00    +0.020 A 
ATOM      9  C   UNL     1     -13.935   6.791 -18.234  0.00  0.00    +0.111 A 
ATOM     10  N   UNL     1     -14.286   5.665 -17.575  0.00  0.00    -0.253 NA
ATOM     11  C   UNL     1     -12.601   2.951 -15.703  0.00  0.00    +0.030 A 
ENDBRANCH   1   2
BRANCH   1  12
ATOM     12  O   UNL     1     -15.264   1.906 -15.518  0.00  0.00    -0.263 OA
ATOM     13  H   UNL     1     -14.877   1.984 -14.633  0.00  0.00    +0.244 HD
ENDBRANCH   1  12
BRANCH   1  14
ATOM     14  O   UNL     1     -15.880   3.363 -17.474  0.00  0.00    -0.263 OA
ATOM     15  H   UNL     1     -15.411   4.058 -17.961  0.00  0.00    +0.244 HD
ENDBRANCH   1  14
BRANCH   1  16
ATOM     16  O   UNL     1     -15.997   4.316 -15.180  0.00  0.00    -0.363 OA
BRANCH  16  21
ATOM     17 CL   UNL     1     -16.171   3.555  -9.363  0.00  0.00    -0.084 Cl
ATOM     18  C   UNL     1     -16.136   3.763 -11.071  0.00  0.00    +0.041 A 
ATOM     19  C   UNL     1     -17.111   3.156 -11.863  0.00  0.00    +0.023 A 
ATOM     20  C   UNL     1     -17.084   3.323 -13.250  0.00  0.00    +0.050 A 
ATOM     21  C   UNL     1     -16.073   4.087 -13.832  0.00  0.00    +0.155 A 
ATOM     22  C   UNL     1     -15.111   4.712 -13.037  0.00  0.00    +0.050 A 
ATOM     23  C   UNL     1     -15.137   4.543 -11.651  0.00  0.00    +0.023 A 
ENDBRANCH  16  21
ENDBRANCH   1  16
TORSDOF 5
ENDMDL
MODEL 5
REMARK VINA RESULT:      -7.0      3.394      6.494
REMARK  Name = min_compound996.pdb
REMARK  5 active torsions:
REMARK  status: ('A' for Active; 'I' for Inactive)
REMARK    1  A    between atoms: _2  and  _9
REMARK    2  A    between atoms: _2  and  _19
REMARK    3  A    between atoms: _10  and  _19
REMARK    4  A    between atoms: _19  and  _20
REMARK    5  A    between atoms: _19  and  _21
REMARK                            x       y       z     vdW  Elec       q    Type
REMARK                         _______ _______ _______ _____ _____    ______ ____
ROOT
ATOM      1  S   UNL     1     -14.743   3.314 -16.375  0.00  0.00    -0.013 S 
ENDROOT
BRANCH   1   2
ATOM      2  C   UNL     1     -15.155   4.440 -15.072  0.00  0.00    +0.124 A 
ATOM      3  C   UNL     1     -15.187   5.806 -15.350  0.00  0.00    +0.097 A 
ATOM      4  C   UNL     1     -15.512   6.665 -14.274  0.00  0.00    +0.002 A 
ATOM      5  C   UNL     1     -15.787   6.150 -12.994  0.00  0.00    +0.010 A 
ATOM      6  C   UNL     1     -15.744   4.780 -12.755  0.00  0.00    +0.003 A 
ATOM      7  C   UNL     1     -15.561   8.045 -14.509  0.00  0.00    +0.011 A 
ATOM      8  C   UNL     1     -15.296   8.546 -15.776  0.00  0.00    +0.020 A 
ATOM      9  C   UNL     1     -14.987   7.645 -16.771  0.00  0.00    +0.111 A 
ATOM     10  N   UNL     1     -14.926   6.309 -16.578  0.00  0.00    -0.253 NA
ATOM     11  C   UNL     1     -15.427   3.918 -13.795  0.00  0.00    +0.030 A 
ENDBRANCH   1   2
BRANCH   1  12
ATOM     12  O   UNL     1     -15.541   3.697 -17.526  0.00  0.00    -0.263 OA
ATOM     13  H   UNL     1     -16.480   3.564 -17.326  0.00  0.00    +0.244 HD
ENDBRANCH   1  12
BRANCH   1  14
ATOM     14  O   UNL     1     -14.874   1.975 -15.818  0.00  0.00    -0.263 OA
ATOM     15  H   UNL     1     -15.300   1.396 -16.469  0.00  0.00    +0.244 HD
ENDBRANCH   1  14
BRANCH   1  16
ATOM     16  O   UNL     1     -13.154   3.560 -16.664  0.00  0.00    -0.363 OA
BRANCH  16  21
ATOM     17 CL   UNL     1      -9.389  -0.930 -16.342  0.00  0.00    -0.084 Cl
ATOM     18  C   UNL     1     -10.501   0.379 -16.456  0.00  0.00    +0.041 A 
ATOM     19  C   UNL     1     -11.437   0.404 -17.489  0.00  0.00    +0.023 A 
ATOM     20  C   UNL     1     -12.340   1.467 -17.585  0.00  0.00    +0.050 A 
ATOM     21  C   UNL     1     -12.287   2.501 -16.650  0.00  0.00    +0.155 A 
ATOM     22  C   UNL     1     -11.364   2.462 -15.604  0.00  0.00    +0.050 A 
ATOM     23  C   UNL     1     -10.461   1.402 -15.510  0.00  0.00    +0.023 A 
ENDBRANCH  16  21
ENDBRANCH   1  16
TORSDOF 5
ENDMDL
MODEL 6
REMARK VINA RESULT:      -7.0      3.694      6.658
REMARK  Name = min_compound996.pdb
REMARK  5 active torsions:
REMARK  status: ('A' for Active; 'I' for Inactive)
REMARK    1  A    between atoms: _2  and  _9
REMARK    2  A    between atoms: _2  and  _19
REMARK    3  A    between atoms: _10  and  _19
REMARK    4  A    between atoms: _19  and  _20
REMARK    5  A    between atoms: _19  and  _21
REMARK                            x       y       z     vdW  Elec       q    Type
REMARK                         _______ _______ _______ _____ _____    ______ ____
ROOT
ATOM      1  S   UNL     1     -14.340   3.848 -16.089  0.00  0.00    -0.013 S 
ENDROOT
BRANCH   1   2
ATOM      2  C   UNL     1     -14.578   5.589 -16.307  0.00  0.00    +0.124 A 
ATOM      3  C   UNL     1     -15.452   6.259 -15.452  0.00  0.00    +0.097 A 
ATOM      4  C   UNL     1     -15.615   7.647 -15.671  0.00  0.00    +0.002 A 
ATOM      5  C   UNL     1     -14.923   8.302 -16.706  0.00  0.00    +0.010 A 
ATOM      6  C   UNL     1     -14.059   7.599 -17.539  0.00  0.00    +0.003 A 
ATOM      7  C   UNL     1     -16.480   8.362 -14.833  0.00  0.00    +0.011 A 
ATOM      8  C   UNL     1     -17.155   7.710 -13.809  0.00  0.00    +0.020 A 
ATOM      9  C   UNL     1     -16.942   6.358 -13.660  0.00  0.00    +0.111 A 
ATOM     10  N   UNL     1     -16.120   5.637 -14.454  0.00  0.00    -0.253 NA
ATOM     11  C   UNL     1     -13.883   6.237 -17.343  0.00  0.00    +0.030 A 
ENDBRANCH   1   2
BRANCH   1  12
ATOM     12  O   UNL     1     -15.556   3.200 -16.546  0.00  0.00    -0.263 OA
ATOM     13  H   UNL     1     -16.219   3.221 -15.839  0.00  0.00    +0.244 HD
ENDBRANCH   1  12
BRANCH   1  14
ATOM     14  O   UNL     1     -13.895   3.662 -14.716  0.00  0.00    -0.263 OA
ATOM     15  H   UNL     1     -14.666   3.555 -14.138  0.00  0.00    +0.244 HD
ENDBRANCH   1  14
BRANCH   1  16
ATOM     16  O   UNL     1     -13.082   3.465 -17.058  0.00  0.00    -0.363 OA
BRANCH  16  21
ATOM     17 CL   UNL     1      -9.615  -1.099 -15.796  0.00  0.00    -0.084 Cl
ATOM     18  C   UNL     1     -10.619   0.252 -16.153  0.00  0.00    +0.041 A 
ATOM     19  C   UNL     1     -10.253   1.524 -15.711  0.00  0.00    +0.023 A 
ATOM     20  C   UNL     1     -11.067   2.623 -15.999  0.00  0.00    +0.050 A 
ATOM     21  C   UNL     1     -12.248   2.435 -16.717  0.00  0.00    +0.155 A 
ATOM     22  C   UNL     1     -12.601   1.166 -17.178  0.00  0.00    +0.050 A 
ATOM     23  C   UNL     1     -11.789   0.068 -16.889  0.00  0.00    +0.023 A 
ENDBRANCH  16  21
ENDBRANCH   1  16
TORSDOF 5
ENDMDL
MODEL 7
REMARK VINA RESULT:      -6.9     11.458     13.462
REMARK  Name = min_compound996.pdb
REMARK  5 active torsions:
REMARK  status: ('A' for Active; 'I' for Inactive)
REMARK    1  A    between atoms: _2  and  _9
REMARK    2  A    between atoms: _2  and  _19
REMARK    3  A    between atoms: _10  and  _19
REMARK    4  A    between atoms: _19  and  _20
REMARK    5  A    between atoms: _19  and  _21
REMARK                            x       y       z     vdW  Elec       q    Type
REMARK                         _______ _______ _______ _____ _____    ______ ____
ROOT
ATOM      1  S   UNL     1     -16.505  -1.411  -2.707  0.00  0.00    -0.013 S 
ENDROOT
BRANCH   1   2
ATOM      2  C   UNL     1     -15.503  -0.394  -3.754  0.00  0.00    +0.124 A 
ATOM      3  C   UNL     1     -15.854  -0.261  -5.096  0.00  0.00    +0.097 A 
ATOM      4  C   UNL     1     -15.017   0.554  -5.894  0.00  0.00    +0.002 A 
ATOM      5  C   UNL     1     -13.890   1.191  -5.343  0.00  0.00    +0.010 A 
ATOM      6  C   UNL     1     -13.572   1.034  -3.998  0.00  0.00    +0.003 A 
ATOM      7  C   UNL     1     -15.334   0.720  -7.248  0.00  0.00    +0.011 A 
ATOM      8  C   UNL     1     -16.451   0.094  -7.784  0.00  0.00    +0.020 A 
ATOM      9  C   UNL     1     -17.216  -0.683  -6.942  0.00  0.00    +0.111 A 
ATOM     10  N   UNL     1     -16.936  -0.870  -5.633  0.00  0.00    -0.253 NA
ATOM     11  C   UNL     1     -14.378   0.239  -3.197  0.00  0.00    +0.030 A 
ENDBRANCH   1   2
BRANCH   1  12
ATOM     12  O   UNL     1     -16.612  -2.704  -3.358  0.00  0.00    -0.263 OA
ATOM     13  H   UNL     1     -16.039  -2.719  -4.140  0.00  0.00    +0.244 HD
ENDBRANCH   1  12
BRANCH   1  14
ATOM     14  O   UNL     1     -17.709  -0.645  -2.420  0.00  0.00    -0.263 OA
ATOM     15  H   UNL     1     -18.030  -0.869  -1.532  0.00  0.00    +0.244 HD
ENDBRANCH   1  14
BRANCH   1  16
ATOM     16  O   UNL     1     -15.671  -1.535  -1.308  0.00  0.00    -0.363 OA
BRANCH  16  21
ATOM     17 CL   UNL     1     -13.034  -6.604   0.031  0.00  0.00    -0.084 Cl
ATOM     18  C   UNL     1     -13.789  -5.112  -0.373  0.00  0.00    +0.041 A 
ATOM     19  C   UNL     1     -13.161  -4.234  -1.256  0.00  0.00    +0.023 A 
ATOM     20  C   UNL     1     -13.771  -3.020  -1.585  0.00  0.00    +0.050 A 
ATOM     21  C   UNL     1     -15.001  -2.692  -1.014  0.00  0.00    +0.155 A 
ATOM     22  C   UNL     1     -15.639  -3.581  -0.148  0.00  0.00    +0.050 A 
ATOM     23  C   UNL     1     -15.028  -4.792   0.181  0.00  0.00    +0.023 A 
ENDBRANCH  16  21
ENDBRANCH   1  16
TORSDOF 5
ENDMDL
MODEL 8
REMARK VINA RESULT:      -6.9      4.171      6.115
REMARK  Name = min_compound996.pdb
REMARK  5 active torsions:
REMARK  status: ('A' for Active; 'I' for Inactive)
REMARK    1  A    between atoms: _2  and  _9
REMARK    2  A    between atoms: _2  and  _19
REMARK    3  A    between atoms: _10  and  _19
REMARK    4  A    between atoms: _19  and  _20
REMARK    5  A    between atoms: _19  and  _21
REMARK                            x       y       z     vdW  Elec       q    Type
REMARK                         _______ _______ _______ _____ _____    ______ ____
ROOT
ATOM      1  S   UNL     1     -14.327   3.965 -16.630  0.00  0.00    -0.013 S 
ENDROOT
BRANCH   1   2
ATOM      2  C   UNL     1     -13.955   4.063 -18.358  0.00  0.00    +0.124 A 
ATOM      3  C   UNL     1     -13.164   5.115 -18.816  0.00  0.00    +0.097 A 
ATOM      4  C   UNL     1     -12.902   5.155 -20.205  0.00  0.00    +0.002 A 
ATOM      5  C   UNL     1     -13.423   4.173 -21.068  0.00  0.00    +0.010 A 
ATOM      6  C   UNL     1     -14.209   3.137 -20.573  0.00  0.00    +0.003 A 
ATOM      7  C   UNL     1     -12.108   6.193 -20.709  0.00  0.00    +0.011 A 
ATOM      8  C   UNL     1     -11.592   7.155 -19.852  0.00  0.00    +0.020 A 
ATOM      9  C   UNL     1     -11.891   7.046 -18.512  0.00  0.00    +0.111 A 
ATOM     10  N   UNL     1     -12.659   6.063 -17.993  0.00  0.00    -0.253 NA
ATOM     11  C   UNL     1     -14.479   3.078 -19.214  0.00  0.00    +0.030 A 
ENDBRANCH   1   2
BRANCH   1  12
ATOM     12  O   UNL     1     -15.328   2.924 -16.476  0.00  0.00    -0.263 OA
ATOM     13  H   UNL     1     -15.550   2.559 -17.346  0.00  0.00    +0.244 HD
ENDBRANCH   1  12
BRANCH   1  14
ATOM     14  O   UNL     1     -14.624   5.322 -16.195  0.00  0.00    -0.263 OA
ATOM     15  H   UNL     1     -15.411   5.645 -16.662  0.00  0.00    +0.244 HD
ENDBRANCH   1  14
BRANCH   1  16
ATOM     16  O   UNL     1     -12.924   3.529 -15.915  0.00  0.00    -0.363 OA
BRANCH  16  21
ATOM     17 CL   UNL     1      -9.746  -1.020 -17.824  0.00  0.00    -0.084 Cl
ATOM     18  C   UNL     1     -10.696   0.301 -17.264  0.00  0.00    +0.041 A 
ATOM     19  C   UNL     1     -12.025   0.091 -16.895  0.00  0.00    +0.023 A 
ATOM     20  C   UNL     1     -12.799   1.163 -16.441  0.00  0.00    +0.050 A 
ATOM     21  C   UNL     1     -12.237   2.438 -16.373  0.00  0.00    +0.155 A 
ATOM     22  C   UNL     1     -10.901   2.641 -16.721  0.00  0.00    +0.050 A 
ATOM     23  C   UNL     1     -10.129   1.571 -17.176  0.00  0.00    +0.023 A 
ENDBRANCH  16  21
ENDBRANCH   1  16
TORSDOF 5
ENDMDL
MODEL 9
REMARK VINA RESULT:      -6.9     12.018     13.655
REMARK  Name = min_compound996.pdb
REMARK  5 active torsions:
REMARK  status: ('A' for Active; 'I' for Inactive)
REMARK    1  A    between atoms: _2  and  _9
REMARK    2  A    between atoms: _2  and  _19
REMARK    3  A    between atoms: _10  and  _19
REMARK    4  A    between atoms: _19  and  _20
REMARK    5  A    between atoms: _19  and  _21
REMARK                            x       y       z     vdW  Elec       q    Type
REMARK                         _______ _______ _______ _____ _____    ______ ____
ROOT
ATOM      1  S   UNL     1     -15.505  -1.491  -3.954  0.00  0.00    -0.013 S 
ENDROOT
BRANCH   1   2
ATOM      2  C   UNL     1     -15.005   0.202  -3.823  0.00  0.00    +0.124 A 
ATOM      3  C   UNL     1     -15.954   1.201  -4.037  0.00  0.00    +0.097 A 
ATOM      4  C   UNL     1     -15.503   2.537  -3.930  0.00  0.00    +0.002 A 
ATOM      5  C   UNL     1     -14.161   2.826  -3.623  0.00  0.00    +0.010 A 
ATOM      6  C   UNL     1     -13.243   1.801  -3.417  0.00  0.00    +0.003 A 
ATOM      7  C   UNL     1     -16.424   3.574  -4.132  0.00  0.00    +0.011 A 
ATOM      8  C   UNL     1     -17.748   3.282  -4.427  0.00  0.00    +0.020 A 
ATOM      9  C   UNL     1     -18.109   1.956  -4.513  0.00  0.00    +0.111 A 
ATOM     10  N   UNL     1     -17.246   0.932  -4.331  0.00  0.00    -0.253 NA
ATOM     11  C   UNL     1     -13.662   0.483  -3.517  0.00  0.00    +0.030 A 
ENDBRANCH   1   2
BRANCH   1  12
ATOM     12  O   UNL     1     -14.472  -2.175  -4.711  0.00  0.00    -0.263 OA
ATOM     13  H   UNL     1     -13.926  -1.522  -5.174  0.00  0.00    +0.244 HD
ENDBRANCH   1  12
BRANCH   1  14
ATOM     14  O   UNL     1     -16.874  -1.479  -4.449  0.00  0.00    -0.263 OA
ATOM     15  H   UNL     1     -17.142  -0.565  -4.636  0.00  0.00    +0.244 HD
ENDBRANCH   1  14
BRANCH   1  16
ATOM     16  O   UNL     1     -15.556  -2.042  -2.417  0.00  0.00    -0.363 OA
BRANCH  16  21
ATOM     17 CL   UNL     1     -13.096  -7.165  -0.953  0.00  0.00    -0.084 Cl
ATOM     18  C   UNL     1     -13.835  -5.674  -1.391  0.00  0.00    +0.041 A 
ATOM     19  C   UNL     1     -15.126  -5.668  -1.917  0.00  0.00    +0.023 A 
ATOM     20  C   UNL     1     -15.728  -4.459  -2.275  0.00  0.00    +0.050 A 
ATOM     21  C   UNL     1     -15.024  -3.265  -2.113  0.00  0.00    +0.155 A 
ATOM     22  C   UNL     1     -13.740  -3.271  -1.565  0.00  0.00    +0.050 A 
ATOM     23  C   UNL     1     -13.139  -4.479  -1.210  0.00  0.00    +0.023 A 
ENDBRANCH  16  21
ENDBRANCH   1  16
TORSDOF 5
ENDMDL
