MODEL 1
REMARK VINA RESULT:      -6.5      0.000      0.000
REMARK  Name = min_compound974.pdb
REMARK  3 active torsions:
REMARK  status: ('A' for Active; 'I' for Inactive)
REMARK    1  A    between atoms: _10  and  _18
REMARK    2  A    between atoms: _12  and  _15
REMARK    3  A    between atoms: _15  and  _17
REMARK                            x       y       z     vdW  Elec       q    Type
REMARK                         _______ _______ _______ _____ _____    ______ ____
ROOT
ATOM      1  C   UNL     1     -12.190   1.289 -16.496  0.00  0.00    -0.010 A 
ATOM      2  C   UNL     1     -10.882   1.815 -16.474  0.00  0.00    +0.066 A 
ATOM      3  C   UNL     1      -9.781   0.941 -16.429  0.00  0.00    +0.015 A 
ATOM      4  C   UNL     1      -9.971  -0.441 -16.394  0.00  0.00    +0.001 A 
ATOM      5  C   UNL     1     -11.259  -0.964 -16.405  0.00  0.00    +0.001 A 
ATOM      6  C   UNL     1     -12.360  -0.106 -16.455  0.00  0.00    +0.009 A 
ENDROOT
BRANCH   1  12
ATOM      7  H   UNL     1     -16.317   4.564 -18.892  0.00  0.00    +0.156 HD
ATOM      8  N   UNL     1     -15.523   3.953 -18.775  0.00  0.00    -0.270 N 
ATOM      9  C   UNL     1     -14.735   3.590 -19.823  0.00  0.00    +0.118 C 
ATOM     10  S   UNL     1     -13.486   2.495 -19.273  0.00  0.00    -0.061 S 
ATOM     11  C   UNL     1     -13.993   2.620 -17.627  0.00  0.00    +0.077 C 
ATOM     12  C   UNL     1     -13.418   2.097 -16.536  0.00  0.00    +0.029 C 
ATOM     13  S   UNL     1     -14.967   4.120 -21.373  0.00  0.00    -0.027 S 
ATOM     14  C   UNL     1     -15.217   3.459 -17.538  0.00  0.00    +0.256 C 
ATOM     15  O   UNL     1     -15.865   3.669 -16.526  0.00  0.00    -0.269 OA
ENDBRANCH   1  12
BRANCH   2  16
ATOM     16  C   UNL     1     -10.632   3.281 -16.451  0.00  0.00    +0.337 C 
ATOM     17  O   UNL     1     -10.642   4.047 -17.397  0.00  0.00    -0.245 OA
BRANCH  16  18
ATOM     18  O   UNL     1     -10.340   3.722 -15.212  0.00  0.00    -0.477 OA
ATOM     19  H   UNL     1     -10.295   4.696 -15.312  0.00  0.00    +0.295 HD
ENDBRANCH  16  18
ENDBRANCH   2  16
TORSDOF 3
ENDMDL
MODEL 2
REMARK VINA RESULT:      -6.2      2.071      2.415
REMARK  Name = min_compound974.pdb
REMARK  3 active torsions:
REMARK  status: ('A' for Active; 'I' for Inactive)
REMARK    1  A    between atoms: _10  and  _18
REMARK    2  A    between atoms: _12  and  _15
REMARK    3  A    between atoms: _15  and  _17
REMARK                            x       y       z     vdW  Elec       q    Type
REMARK                         _______ _______ _______ _____ _____    ______ ____
ROOT
ATOM      1  C   UNL     1     -11.977   1.328 -16.973  0.00  0.00    -0.010 A 
ATOM      2  C   UNL     1     -10.766   1.787 -16.415  0.00  0.00    +0.066 A 
ATOM      3  C   UNL     1      -9.904   0.875 -15.779  0.00  0.00    +0.015 A 
ATOM      4  C   UNL     1     -10.241  -0.476 -15.684  0.00  0.00    +0.001 A 
ATOM      5  C   UNL     1     -11.439  -0.930 -16.223  0.00  0.00    +0.001 A 
ATOM      6  C   UNL     1     -12.301  -0.035 -16.862  0.00  0.00    +0.009 A 
ENDROOT
BRANCH   1  12
ATOM      7  H   UNL     1     -16.395   5.042 -17.404  0.00  0.00    +0.156 HD
ATOM      8  N   UNL     1     -15.652   4.474 -17.027  0.00  0.00    -0.270 N 
ATOM      9  C   UNL     1     -15.443   4.356 -15.688  0.00  0.00    +0.118 C 
ATOM     10  S   UNL     1     -14.053   3.337 -15.392  0.00  0.00    -0.061 S 
ATOM     11  C   UNL     1     -13.834   3.014 -17.074  0.00  0.00    +0.077 C 
ATOM     12  C   UNL     1     -12.961   2.181 -17.655  0.00  0.00    +0.029 C 
ATOM     13  S   UNL     1     -16.384   5.095 -14.544  0.00  0.00    -0.027 S 
ATOM     14  C   UNL     1     -14.814   3.799 -17.870  0.00  0.00    +0.256 C 
ATOM     15  O   UNL     1     -14.861   3.853 -19.088  0.00  0.00    -0.269 OA
ENDBRANCH   1  12
BRANCH   2  16
ATOM     16  C   UNL     1     -10.392   3.226 -16.440  0.00  0.00    +0.337 C 
ATOM     17  O   UNL     1     -10.079   3.891 -17.410  0.00  0.00    -0.245 OA
BRANCH  16  18
ATOM     18  O   UNL     1     -10.396   3.768 -15.206  0.00  0.00    -0.477 OA
ATOM     19  H   UNL     1     -10.272   4.726 -15.369  0.00  0.00    +0.295 HD
ENDBRANCH  16  18
ENDBRANCH   2  16
TORSDOF 3
ENDMDL
MODEL 3
REMARK VINA RESULT:      -6.0     11.455     12.087
REMARK  Name = min_compound974.pdb
REMARK  3 active torsions:
REMARK  status: ('A' for Active; 'I' for Inactive)
REMARK    1  A    between atoms: _10  and  _18
REMARK    2  A    between atoms: _12  and  _15
REMARK    3  A    between atoms: _15  and  _17
REMARK                            x       y       z     vdW  Elec       q    Type
REMARK                         _______ _______ _______ _____ _____    ______ ____
ROOT
ATOM      1  C   UNL     1     -15.787   1.146  -4.943  0.00  0.00    -0.010 A 
ATOM      2  C   UNL     1     -14.705   0.243  -4.883  0.00  0.00    +0.066 A 
ATOM      3  C   UNL     1     -13.533   0.608  -4.197  0.00  0.00    +0.015 A 
ATOM      4  C   UNL     1     -13.425   1.858  -3.585  0.00  0.00    +0.001 A 
ATOM      5  C   UNL     1     -14.486   2.755  -3.652  0.00  0.00    +0.001 A 
ATOM      6  C   UNL     1     -15.657   2.402  -4.326  0.00  0.00    +0.009 A 
ENDROOT
BRANCH   1  12
ATOM      7  H   UNL     1     -19.748   1.609  -9.137  0.00  0.00    +0.156 HD
ATOM      8  N   UNL     1     -18.887   1.683  -8.618  0.00  0.00    -0.270 N 
ATOM      9  C   UNL     1     -17.836   2.421  -9.067  0.00  0.00    +0.118 C 
ATOM     10  S   UNL     1     -16.499   2.293  -7.946  0.00  0.00    -0.061 S 
ATOM     11  C   UNL     1     -17.412   1.323  -6.848  0.00  0.00    +0.077 C 
ATOM     12  C   UNL     1     -17.059   0.884  -5.633  0.00  0.00    +0.029 C 
ATOM     13  S   UNL     1     -17.860   3.288 -10.477  0.00  0.00    -0.027 S 
ATOM     14  C   UNL     1     -18.749   1.026  -7.428  0.00  0.00    +0.256 C 
ATOM     15  O   UNL     1     -19.593   0.296  -6.934  0.00  0.00    -0.269 OA
ENDBRANCH   1  12
BRANCH   2  16
ATOM     16  C   UNL     1     -14.752  -1.076  -5.568  0.00  0.00    +0.337 C 
ATOM     17  O   UNL     1     -14.971  -1.289  -6.746  0.00  0.00    -0.245 OA
BRANCH  16  18
ATOM     18  O   UNL     1     -14.550  -2.096  -4.710  0.00  0.00    -0.477 OA
ATOM     19  H   UNL     1     -14.809  -1.727  -3.840  0.00  0.00    +0.295 HD
ENDBRANCH  16  18
ENDBRANCH   2  16
TORSDOF 3
ENDMDL
MODEL 4
REMARK VINA RESULT:      -5.9      3.082      3.882
REMARK  Name = min_compound974.pdb
REMARK  3 active torsions:
REMARK  status: ('A' for Active; 'I' for Inactive)
REMARK    1  A    between atoms: _10  and  _18
REMARK    2  A    between atoms: _12  and  _15
REMARK    3  A    between atoms: _15  and  _17
REMARK                            x       y       z     vdW  Elec       q    Type
REMARK                         _______ _______ _______ _____ _____    ______ ____
ROOT
ATOM      1  C   UNL     1     -11.648   3.038 -17.205  0.00  0.00    -0.010 A 
ATOM      2  C   UNL     1     -12.312   1.976 -17.855  0.00  0.00    +0.066 A 
ATOM      3  C   UNL     1     -12.085   0.654 -17.434  0.00  0.00    +0.015 A 
ATOM      4  C   UNL     1     -11.201   0.381 -16.388  0.00  0.00    +0.001 A 
ATOM      5  C   UNL     1     -10.537   1.424 -15.753  0.00  0.00    +0.001 A 
ATOM      6  C   UNL     1     -10.758   2.742 -16.159  0.00  0.00    +0.009 A 
ENDROOT
BRANCH   1  12
ATOM      7  H   UNL     1     -14.245   8.205 -17.453  0.00  0.00    +0.156 HD
ATOM      8  N   UNL     1     -14.029   7.250 -17.213  0.00  0.00    -0.270 N 
ATOM      9  C   UNL     1     -14.869   6.489 -16.461  0.00  0.00    +0.118 C 
ATOM     10  S   UNL     1     -14.165   4.909 -16.200  0.00  0.00    -0.061 S 
ATOM     11  C   UNL     1     -12.795   5.271 -17.186  0.00  0.00    +0.077 C 
ATOM     12  C   UNL     1     -11.797   4.458 -17.557  0.00  0.00    +0.029 C 
ATOM     13  S   UNL     1     -16.327   7.024 -15.888  0.00  0.00    -0.027 S 
ATOM     14  C   UNL     1     -12.859   6.686 -17.640  0.00  0.00    +0.256 C 
ATOM     15  O   UNL     1     -12.000   7.268 -18.280  0.00  0.00    -0.269 OA
ENDBRANCH   1  12
BRANCH   2  16
ATOM     16  C   UNL     1     -13.217   2.214 -19.011  0.00  0.00    +0.337 C 
ATOM     17  O   UNL     1     -14.265   2.833 -19.013  0.00  0.00    -0.245 OA
BRANCH  16  18
ATOM     18  O   UNL     1     -12.768   1.616 -20.132  0.00  0.00    -0.477 OA
ATOM     19  H   UNL     1     -11.885   2.016 -20.275  0.00  0.00    +0.295 HD
ENDBRANCH  16  18
ENDBRANCH   2  16
TORSDOF 3
ENDMDL
MODEL 5
REMARK VINA RESULT:      -5.8      2.635      3.475
REMARK  Name = min_compound974.pdb
REMARK  3 active torsions:
REMARK  status: ('A' for Active; 'I' for Inactive)
REMARK    1  A    between atoms: _10  and  _18
REMARK    2  A    between atoms: _12  and  _15
REMARK    3  A    between atoms: _15  and  _17
REMARK                            x       y       z     vdW  Elec       q    Type
REMARK                         _______ _______ _______ _____ _____    ______ ____
ROOT
ATOM      1  C   UNL     1     -11.934   2.468 -17.783  0.00  0.00    -0.010 A 
ATOM      2  C   UNL     1     -11.539   1.546 -16.791  0.00  0.00    +0.066 A 
ATOM      3  C   UNL     1     -10.881   2.006 -15.637  0.00  0.00    +0.015 A 
ATOM      4  C   UNL     1     -10.604   3.363 -15.468  0.00  0.00    +0.001 A 
ATOM      5  C   UNL     1     -10.981   4.274 -16.448  0.00  0.00    +0.001 A 
ATOM      6  C   UNL     1     -11.640   3.830 -17.597  0.00  0.00    +0.009 A 
ENDROOT
BRANCH   1  12
ATOM      7  H   UNL     1     -16.108   2.648 -21.787  0.00  0.00    +0.156 HD
ATOM      8  N   UNL     1     -15.539   2.865 -20.984  0.00  0.00    -0.270 N 
ATOM      9  C   UNL     1     -15.899   3.818 -20.083  0.00  0.00    +0.118 C 
ATOM     10  S   UNL     1     -14.667   3.963 -18.849  0.00  0.00    -0.061 S 
ATOM     11  C   UNL     1     -13.734   2.674 -19.520  0.00  0.00    +0.077 C 
ATOM     12  C   UNL     1     -12.621   2.111 -19.033  0.00  0.00    +0.029 C 
ATOM     13  S   UNL     1     -17.300   4.694 -20.184  0.00  0.00    -0.027 S 
ATOM     14  C   UNL     1     -14.363   2.198 -20.780  0.00  0.00    +0.256 C 
ATOM     15  O   UNL     1     -13.902   1.356 -21.532  0.00  0.00    -0.269 OA
ENDBRANCH   1  12
BRANCH   2  16
ATOM     16  C   UNL     1     -11.762   0.084 -16.954  0.00  0.00    +0.337 C 
ATOM     17  O   UNL     1     -12.692  -0.574 -16.526  0.00  0.00    -0.245 OA
BRANCH  16  18
ATOM     18  O   UNL     1     -10.759  -0.504 -17.636  0.00  0.00    -0.477 OA
ATOM     19  H   UNL     1     -10.559   0.130 -18.356  0.00  0.00    +0.295 HD
ENDBRANCH  16  18
ENDBRANCH   2  16
TORSDOF 3
ENDMDL
MODEL 6
REMARK VINA RESULT:      -5.7     12.597     13.266
REMARK  Name = min_compound974.pdb
REMARK  3 active torsions:
REMARK  status: ('A' for Active; 'I' for Inactive)
REMARK    1  A    between atoms: _10  and  _18
REMARK    2  A    between atoms: _12  and  _15
REMARK    3  A    between atoms: _15  and  _17
REMARK                            x       y       z     vdW  Elec       q    Type
REMARK                         _______ _______ _______ _____ _____    ______ ____
ROOT
ATOM      1  C   UNL     1     -15.774   1.692  -3.910  0.00  0.00    -0.010 A 
ATOM      2  C   UNL     1     -15.418   0.370  -3.573  0.00  0.00    +0.066 A 
ATOM      3  C   UNL     1     -14.090   0.079  -3.211  0.00  0.00    +0.015 A 
ATOM      4  C   UNL     1     -13.121   1.082  -3.193  0.00  0.00    +0.001 A 
ATOM      5  C   UNL     1     -13.466   2.384  -3.536  0.00  0.00    +0.001 A 
ATOM      6  C   UNL     1     -14.782   2.687  -3.892  0.00  0.00    +0.009 A 
ENDROOT
BRANCH   1  12
ATOM      7  H   UNL     1     -19.962   3.349  -7.545  0.00  0.00    +0.156 HD
ATOM      8  N   UNL     1     -19.088   3.002  -7.183  0.00  0.00    -0.270 N 
ATOM      9  C   UNL     1     -18.030   2.727  -7.993  0.00  0.00    +0.118 C 
ATOM     10  S   UNL     1     -16.700   2.103  -7.043  0.00  0.00    -0.061 S 
ATOM     11  C   UNL     1     -17.562   2.310  -5.561  0.00  0.00    +0.077 C 
ATOM     12  C   UNL     1     -17.124   2.120  -4.310  0.00  0.00    +0.029 C 
ATOM     13  S   UNL     1     -18.047   2.955  -9.633  0.00  0.00    -0.027 S 
ATOM     14  C   UNL     1     -18.942   2.786  -5.841  0.00  0.00    +0.256 C 
ATOM     15  O   UNL     1     -19.822   2.947  -5.012  0.00  0.00    -0.269 OA
ENDBRANCH   1  12
BRANCH   2  16
ATOM     16  C   UNL     1     -16.404  -0.743  -3.633  0.00  0.00    +0.337 C 
ATOM     17  O   UNL     1     -17.139  -1.127  -2.743  0.00  0.00    -0.245 OA
BRANCH  16  18
ATOM     18  O   UNL     1     -16.393  -1.359  -4.832  0.00  0.00    -0.477 OA
ATOM     19  H   UNL     1     -16.147  -2.283  -4.620  0.00  0.00    +0.295 HD
ENDBRANCH  16  18
ENDBRANCH   2  16
TORSDOF 3
ENDMDL
MODEL 7
REMARK VINA RESULT:      -5.5     14.525     15.513
REMARK  Name = min_compound974.pdb
REMARK  3 active torsions:
REMARK  status: ('A' for Active; 'I' for Inactive)
REMARK    1  A    between atoms: _10  and  _18
REMARK    2  A    between atoms: _12  and  _15
REMARK    3  A    between atoms: _15  and  _17
REMARK                            x       y       z     vdW  Elec       q    Type
REMARK                         _______ _______ _______ _____ _____    ______ ____
ROOT
ATOM      1  C   UNL     1     -14.459  -0.621  -3.829  0.00  0.00    -0.010 A 
ATOM      2  C   UNL     1     -14.902  -0.126  -5.074  0.00  0.00    +0.066 A 
ATOM      3  C   UNL     1     -14.621   1.204  -5.433  0.00  0.00    +0.015 A 
ATOM      4  C   UNL     1     -13.917   2.042  -4.566  0.00  0.00    +0.001 A 
ATOM      5  C   UNL     1     -13.489   1.561  -3.334  0.00  0.00    +0.001 A 
ATOM      6  C   UNL     1     -13.758   0.240  -2.968  0.00  0.00    +0.009 A 
ENDROOT
BRANCH   1  12
ATOM      7  H   UNL     1     -17.112  -4.804  -0.835  0.00  0.00    +0.156 HD
ATOM      8  N   UNL     1     -16.903  -3.916  -1.266  0.00  0.00    -0.270 N 
ATOM      9  C   UNL     1     -17.664  -2.810  -1.041  0.00  0.00    +0.118 C 
ATOM     10  S   UNL     1     -17.046  -1.466  -1.975  0.00  0.00    -0.061 S 
ATOM     11  C   UNL     1     -15.722  -2.395  -2.580  0.00  0.00    +0.077 C 
ATOM     12  C   UNL     1     -14.697  -1.987  -3.338  0.00  0.00    +0.029 C 
ATOM     13  S   UNL     1     -18.976  -2.789  -0.033  0.00  0.00    -0.027 S 
ATOM     14  C   UNL     1     -15.834  -3.801  -2.109  0.00  0.00    +0.256 C 
ATOM     15  O   UNL     1     -15.100  -4.720  -2.430  0.00  0.00    -0.269 OA
ENDBRANCH   1  12
BRANCH   2  16
ATOM     16  C   UNL     1     -15.705  -0.964  -6.004  0.00  0.00    +0.337 C 
ATOM     17  O   UNL     1     -15.320  -1.519  -7.017  0.00  0.00    -0.245 OA
BRANCH  16  18
ATOM     18  O   UNL     1     -16.996  -1.039  -5.627  0.00  0.00    -0.477 OA
ATOM     19  H   UNL     1     -17.070  -1.922  -5.210  0.00  0.00    +0.295 HD
ENDBRANCH  16  18
ENDBRANCH   2  16
TORSDOF 3
ENDMDL
MODEL 8
REMARK VINA RESULT:      -5.5     11.729     12.404
REMARK  Name = min_compound974.pdb
REMARK  3 active torsions:
REMARK  status: ('A' for Active; 'I' for Inactive)
REMARK    1  A    between atoms: _10  and  _18
REMARK    2  A    between atoms: _12  and  _15
REMARK    3  A    between atoms: _15  and  _17
REMARK                            x       y       z     vdW  Elec       q    Type
REMARK                         _______ _______ _______ _____ _____    ______ ____
ROOT
ATOM      1  C   UNL     1     -15.520   1.646  -5.845  0.00  0.00    -0.010 A 
ATOM      2  C   UNL     1     -15.514   2.126  -4.518  0.00  0.00    +0.066 A 
ATOM      3  C   UNL     1     -14.604   1.589  -3.590  0.00  0.00    +0.015 A 
ATOM      4  C   UNL     1     -13.716   0.580  -3.965  0.00  0.00    +0.001 A 
ATOM      5  C   UNL     1     -13.727   0.097  -5.268  0.00  0.00    +0.001 A 
ATOM      6  C   UNL     1     -14.622   0.626  -6.201  0.00  0.00    +0.009 A 
ENDROOT
BRANCH   1  12
ATOM      7  H   UNL     1     -20.254   1.659  -9.175  0.00  0.00    +0.156 HD
ATOM      8  N   UNL     1     -19.597   1.443  -8.441  0.00  0.00    -0.270 N 
ATOM      9  C   UNL     1     -19.814   0.433  -7.556  0.00  0.00    +0.118 C 
ATOM     10  S   UNL     1     -18.504   0.368  -6.398  0.00  0.00    -0.061 S 
ATOM     11  C   UNL     1     -17.644   1.643  -7.182  0.00  0.00    +0.077 C 
ATOM     12  C   UNL     1     -16.425   2.121  -6.903  0.00  0.00    +0.029 C 
ATOM     13  S   UNL     1     -21.140  -0.557  -7.599  0.00  0.00    -0.027 S 
ATOM     14  C   UNL     1     -18.454   2.180  -8.309  0.00  0.00    +0.256 C 
ATOM     15  O   UNL     1     -18.159   3.138  -9.004  0.00  0.00    -0.269 OA
ENDBRANCH   1  12
BRANCH   2  16
ATOM     16  C   UNL     1     -16.481   3.158  -4.058  0.00  0.00    +0.337 C 
ATOM     17  O   UNL     1     -17.672   3.016  -3.854  0.00  0.00    -0.245 OA
BRANCH  16  18
ATOM     18  O   UNL     1     -15.896   4.363  -3.907  0.00  0.00    -0.477 OA
ATOM     19  H   UNL     1     -15.405   4.282  -3.063  0.00  0.00    +0.295 HD
ENDBRANCH  16  18
ENDBRANCH   2  16
TORSDOF 3
ENDMDL
MODEL 9
REMARK VINA RESULT:      -5.5      2.855      5.536
REMARK  Name = min_compound974.pdb
REMARK  3 active torsions:
REMARK  status: ('A' for Active; 'I' for Inactive)
REMARK    1  A    between atoms: _10  and  _18
REMARK    2  A    between atoms: _12  and  _15
REMARK    3  A    between atoms: _15  and  _17
REMARK                            x       y       z     vdW  Elec       q    Type
REMARK                         _______ _______ _______ _____ _____    ______ ____
ROOT
ATOM      1  C   UNL     1     -14.729   3.538 -15.642  0.00  0.00    -0.010 A 
ATOM      2  C   UNL     1     -15.486   3.723 -16.817  0.00  0.00    +0.066 A 
ATOM      3  C   UNL     1     -16.882   3.550 -16.778  0.00  0.00    +0.015 A 
ATOM      4  C   UNL     1     -17.521   3.186 -15.593  0.00  0.00    +0.001 A 
ATOM      5  C   UNL     1     -16.776   2.992 -14.435  0.00  0.00    +0.001 A 
ATOM      6  C   UNL     1     -15.391   3.166 -14.460  0.00  0.00    +0.009 A 
ENDROOT
BRANCH   1  12
ATOM      7  H   UNL     1      -9.197   1.869 -15.968  0.00  0.00    +0.156 HD
ATOM      8  N   UNL     1     -10.201   1.882 -16.049  0.00  0.00    -0.270 N 
ATOM      9  C   UNL     1     -10.904   0.800 -16.481  0.00  0.00    +0.118 C 
ATOM     10  S   UNL     1     -12.609   1.185 -16.544  0.00  0.00    -0.061 S 
ATOM     11  C   UNL     1     -12.354   2.767 -15.901  0.00  0.00    +0.077 C 
ATOM     12  C   UNL     1     -13.268   3.683 -15.556  0.00  0.00    +0.029 C 
ATOM     13  S   UNL     1     -10.205  -0.645 -16.886  0.00  0.00    -0.027 S 
ATOM     14  C   UNL     1     -10.897   3.014 -15.729  0.00  0.00    +0.256 C 
ATOM     15  O   UNL     1     -10.390   4.065 -15.374  0.00  0.00    -0.269 OA
ENDBRANCH   1  12
BRANCH   2  16
ATOM     16  C   UNL     1     -14.842   4.054 -18.116  0.00  0.00    +0.337 C 
ATOM     17  O   UNL     1     -14.421   3.276 -18.951  0.00  0.00    -0.245 OA
BRANCH  16  18
ATOM     18  O   UNL     1     -14.722   5.385 -18.293  0.00  0.00    -0.477 OA
ATOM     19  H   UNL     1     -15.608   5.662 -18.608  0.00  0.00    +0.295 HD
ENDBRANCH  16  18
ENDBRANCH   2  16
TORSDOF 3
ENDMDL
