MODEL 1
REMARK VINA RESULT:      -3.8      0.000      0.000
REMARK  Name = min_compound3.pdb
REMARK  3 active torsions:
REMARK  status: ('A' for Active; 'I' for Inactive)
REMARK    1  A    between atoms: _3  and  _8
REMARK    2  A    between atoms: _8  and  _9
REMARK    3  A    between atoms: _9  and  _10
REMARK                            x       y       z     vdW  Elec       q    Type
REMARK                         _______ _______ _______ _____ _____    ______ ____
ROOT
ATOM      1  H   UNL     1     -10.948  -1.436 -17.965  0.00  0.00    +0.122 HD
ATOM      2  N   UNL     1     -11.016  -0.431 -17.807  0.00  0.00    -0.314 NA
ATOM      3  C   UNL     1     -11.942  -0.211 -16.668  0.00  0.00    +0.096 C 
ATOM      4  C   UNL     1     -12.277   1.396 -16.457  0.00  0.00    +0.099 C 
ATOM      5  N   UNL     1     -10.981   1.843 -15.851  0.00  0.00    -0.299 NA
ATOM      6  C   UNL     1     -10.055   1.621 -17.011  0.00  0.00    +0.099 C 
ATOM      7  C   UNL     1      -9.720   0.017 -17.201  0.00  0.00    +0.096 C 
ENDROOT
BRANCH   5   8
ATOM      8  C   UNL     1     -11.041   3.302 -15.589  0.00  0.00    +0.099 C 
BRANCH   8   9
ATOM      9  C   UNL     1     -10.477   4.160 -16.741  0.00  0.00    +0.093 C 
BRANCH   9  10
ATOM     10  N   UNL     1     -11.505   5.032 -17.317  0.00  0.00    -0.329 NA
ATOM     11  H   UNL     1     -11.127   5.494 -18.143  0.00  0.00    +0.118 HD
ATOM     12  H   UNL     1     -11.716   5.776 -16.652  0.00  0.00    +0.118 HD
ENDBRANCH   9  10
ENDBRANCH   8   9
ENDBRANCH   5   8
TORSDOF 3
ENDMDL
MODEL 2
REMARK VINA RESULT:      -3.7      1.855      2.623
REMARK  Name = min_compound3.pdb
REMARK  3 active torsions:
REMARK  status: ('A' for Active; 'I' for Inactive)
REMARK    1  A    between atoms: _3  and  _8
REMARK    2  A    between atoms: _8  and  _9
REMARK    3  A    between atoms: _9  and  _10
REMARK                            x       y       z     vdW  Elec       q    Type
REMARK                         _______ _______ _______ _____ _____    ______ ____
ROOT
ATOM      1  H   UNL     1      -8.915  -1.090 -15.603  0.00  0.00    +0.122 HD
ATOM      2  N   UNL     1      -9.594  -0.376 -15.865  0.00  0.00    -0.314 NA
ATOM      3  C   UNL     1      -9.235   0.119 -17.217  0.00  0.00    +0.096 C 
ATOM      4  C   UNL     1     -10.157   1.423 -17.653  0.00  0.00    +0.099 C 
ATOM      5  N   UNL     1     -11.451   0.725 -17.947  0.00  0.00    -0.299 NA
ATOM      6  C   UNL     1     -11.806   0.233 -16.574  0.00  0.00    +0.099 C 
ATOM      7  C   UNL     1     -10.888  -1.073 -16.158  0.00  0.00    +0.096 C 
ENDROOT
BRANCH   5   8
ATOM      8  C   UNL     1     -12.468   1.728 -18.349  0.00  0.00    +0.099 C 
BRANCH   8   9
ATOM      9  C   UNL     1     -13.282   2.290 -17.164  0.00  0.00    +0.093 C 
BRANCH   9  10
ATOM     10  N   UNL     1     -12.979   3.704 -16.923  0.00  0.00    -0.329 NA
ATOM     11  H   UNL     1     -12.345   3.779 -16.129  0.00  0.00    +0.118 HD
ATOM     12  H   UNL     1     -13.837   4.181 -16.644  0.00  0.00    +0.118 HD
ENDBRANCH   9  10
ENDBRANCH   8   9
ENDBRANCH   5   8
TORSDOF 3
ENDMDL
MODEL 3
REMARK VINA RESULT:      -3.7      2.060      2.940
REMARK  Name = min_compound3.pdb
REMARK  3 active torsions:
REMARK  status: ('A' for Active; 'I' for Inactive)
REMARK    1  A    between atoms: _3  and  _8
REMARK    2  A    between atoms: _8  and  _9
REMARK    3  A    between atoms: _9  and  _10
REMARK                            x       y       z     vdW  Elec       q    Type
REMARK                         _______ _______ _______ _____ _____    ______ ____
ROOT
ATOM      1  H   UNL     1      -9.374  -1.041 -16.005  0.00  0.00    +0.122 HD
ATOM      2  N   UNL     1     -10.002  -0.240 -16.071  0.00  0.00    -0.314 NA
ATOM      3  C   UNL     1      -9.605   0.551 -17.263  0.00  0.00    +0.096 C 
ATOM      4  C   UNL     1     -10.435   1.981 -17.348  0.00  0.00    +0.099 C 
ATOM      5  N   UNL     1     -11.772   1.466 -17.789  0.00  0.00    -0.299 NA
ATOM      6  C   UNL     1     -12.165   0.673 -16.577  0.00  0.00    +0.099 C 
ATOM      7  C   UNL     1     -11.339  -0.754 -16.512  0.00  0.00    +0.096 C 
ENDROOT
BRANCH   5   8
ATOM      8  C   UNL     1     -12.717   2.603 -17.915  0.00  0.00    +0.099 C 
BRANCH   8   9
ATOM      9  C   UNL     1     -13.509   2.604 -19.240  0.00  0.00    +0.093 C 
BRANCH   9  10
ATOM     10  N   UNL     1     -13.038   1.556 -20.151  0.00  0.00    -0.329 NA
ATOM     11  H   UNL     1     -13.821   0.951 -20.397  0.00  0.00    +0.118 HD
ATOM     12  H   UNL     1     -12.372   0.964 -19.655  0.00  0.00    +0.118 HD
ENDBRANCH   9  10
ENDBRANCH   8   9
ENDBRANCH   5   8
TORSDOF 3
ENDMDL
MODEL 4
REMARK VINA RESULT:      -3.6     12.119     12.850
REMARK  Name = min_compound3.pdb
REMARK  3 active torsions:
REMARK  status: ('A' for Active; 'I' for Inactive)
REMARK    1  A    between atoms: _3  and  _8
REMARK    2  A    between atoms: _8  and  _9
REMARK    3  A    between atoms: _9  and  _10
REMARK                            x       y       z     vdW  Elec       q    Type
REMARK                         _______ _______ _______ _____ _____    ______ ____
ROOT
ATOM      1  H   UNL     1     -15.035  -2.370  -6.034  0.00  0.00    +0.122 HD
ATOM      2  N   UNL     1     -15.238  -1.452  -5.637  0.00  0.00    -0.314 NA
ATOM      3  C   UNL     1     -14.548  -1.361  -4.326  0.00  0.00    +0.096 C 
ATOM      4  C   UNL     1     -14.975   0.013  -3.508  0.00  0.00    +0.099 C 
ATOM      5  N   UNL     1     -14.202   1.024  -4.300  0.00  0.00    -0.299 NA
ATOM      6  C   UNL     1     -14.910   0.926  -5.620  0.00  0.00    +0.099 C 
ATOM      7  C   UNL     1     -14.465  -0.441  -6.429  0.00  0.00    +0.096 C 
ENDROOT
BRANCH   5   8
ATOM      8  C   UNL     1     -14.455   2.377  -3.746  0.00  0.00    +0.099 C 
BRANCH   8   9
ATOM      9  C   UNL     1     -15.855   2.931  -4.086  0.00  0.00    +0.093 C 
BRANCH   9  10
ATOM     10  N   UNL     1     -15.935   4.376  -3.854  0.00  0.00    -0.329 NA
ATOM     11  H   UNL     1     -15.961   4.857  -4.752  0.00  0.00    +0.118 HD
ATOM     12  H   UNL     1     -15.077   4.683  -3.395  0.00  0.00    +0.118 HD
ENDBRANCH   9  10
ENDBRANCH   8   9
ENDBRANCH   5   8
TORSDOF 3
ENDMDL
MODEL 5
REMARK VINA RESULT:      -3.6      1.361      4.130
REMARK  Name = min_compound3.pdb
REMARK  3 active torsions:
REMARK  status: ('A' for Active; 'I' for Inactive)
REMARK    1  A    between atoms: _3  and  _8
REMARK    2  A    between atoms: _8  and  _9
REMARK    3  A    between atoms: _9  and  _10
REMARK                            x       y       z     vdW  Elec       q    Type
REMARK                         _______ _______ _______ _____ _____    ______ ____
ROOT
ATOM      1  H   UNL     1     -12.248   4.961 -15.748  0.00  0.00    +0.122 HD
ATOM      2  N   UNL     1     -12.138   4.122 -16.317  0.00  0.00    -0.314 NA
ATOM      3  C   UNL     1     -10.789   3.563 -16.046  0.00  0.00    +0.096 C 
ATOM      4  C   UNL     1     -10.433   2.311 -17.069  0.00  0.00    +0.099 C 
ATOM      5  N   UNL     1     -11.301   1.246 -16.470  0.00  0.00    -0.299 NA
ATOM      6  C   UNL     1     -12.659   1.819 -16.752  0.00  0.00    +0.099 C 
ATOM      7  C   UNL     1     -13.005   3.057 -15.718  0.00  0.00    +0.096 C 
ENDROOT
BRANCH   5   8
ATOM      8  C   UNL     1     -11.160  -0.002 -17.259  0.00  0.00    +0.099 C 
BRANCH   8   9
ATOM      9  C   UNL     1      -9.738  -0.601 -17.218  0.00  0.00    +0.093 C 
BRANCH   9  10
ATOM     10  N   UNL     1      -9.294  -0.845 -15.843  0.00  0.00    -0.329 NA
ATOM     11  H   UNL     1      -8.308  -0.601 -15.762  0.00  0.00    +0.118 HD
ATOM     12  H   UNL     1      -9.352  -1.846 -15.652  0.00  0.00    +0.118 HD
ENDBRANCH   9  10
ENDBRANCH   8   9
ENDBRANCH   5   8
TORSDOF 3
ENDMDL
MODEL 6
REMARK VINA RESULT:      -3.4      8.044      9.192
REMARK  Name = min_compound3.pdb
REMARK  3 active torsions:
REMARK  status: ('A' for Active; 'I' for Inactive)
REMARK    1  A    between atoms: _3  and  _8
REMARK    2  A    between atoms: _8  and  _9
REMARK    3  A    between atoms: _9  and  _10
REMARK                            x       y       z     vdW  Elec       q    Type
REMARK                         _______ _______ _______ _____ _____    ______ ____
ROOT
ATOM      1  H   UNL     1     -17.488   5.342 -12.628  0.00  0.00    +0.122 HD
ATOM      2  N   UNL     1     -17.243   6.002 -13.365  0.00  0.00    -0.314 NA
ATOM      3  C   UNL     1     -17.981   7.264 -13.109  0.00  0.00    +0.096 C 
ATOM      4  C   UNL     1     -17.808   8.335 -14.359  0.00  0.00    +0.099 C 
ATOM      5  N   UNL     1     -16.399   8.782 -14.110  0.00  0.00    -0.299 NA
ATOM      6  C   UNL     1     -15.663   7.501 -14.375  0.00  0.00    +0.099 C 
ATOM      7  C   UNL     1     -15.834   6.449 -13.117  0.00  0.00    +0.096 C 
ENDROOT
BRANCH   5   8
ATOM      8  C   UNL     1     -16.003   9.760 -15.153  0.00  0.00    +0.099 C 
BRANCH   8   9
ATOM      9  C   UNL     1     -16.329  11.223 -14.784  0.00  0.00    +0.093 C 
BRANCH   9  10
ATOM     10  N   UNL     1     -15.144  12.079 -14.873  0.00  0.00    -0.329 NA
ATOM     11  H   UNL     1     -14.377  11.547 -15.281  0.00  0.00    +0.118 HD
ATOM     12  H   UNL     1     -14.844  12.325 -13.929  0.00  0.00    +0.118 HD
ENDBRANCH   9  10
ENDBRANCH   8   9
ENDBRANCH   5   8
TORSDOF 3
ENDMDL
MODEL 7
REMARK VINA RESULT:      -3.4      2.300      3.486
REMARK  Name = min_compound3.pdb
REMARK  3 active torsions:
REMARK  status: ('A' for Active; 'I' for Inactive)
REMARK    1  A    between atoms: _3  and  _8
REMARK    2  A    between atoms: _8  and  _9
REMARK    3  A    between atoms: _9  and  _10
REMARK                            x       y       z     vdW  Elec       q    Type
REMARK                         _______ _______ _______ _____ _____    ______ ____
ROOT
ATOM      1  H   UNL     1      -9.309   1.614 -15.233  0.00  0.00    +0.122 HD
ATOM      2  N   UNL     1     -10.323   1.680 -15.310  0.00  0.00    -0.314 NA
ATOM      3  C   UNL     1     -10.660   3.070 -15.708  0.00  0.00    +0.096 C 
ATOM      4  C   UNL     1     -12.292   3.337 -15.667  0.00  0.00    +0.099 C 
ATOM      5  N   UNL     1     -12.699   2.588 -16.900  0.00  0.00    -0.299 NA
ATOM      6  C   UNL     1     -12.358   1.186 -16.484  0.00  0.00    +0.099 C 
ATOM      7  C   UNL     1     -10.730   0.931 -16.543  0.00  0.00    +0.096 C 
ENDROOT
BRANCH   5   8
ATOM      8  C   UNL     1     -14.171   2.671 -17.061  0.00  0.00    +0.099 C 
BRANCH   8   9
ATOM      9  C   UNL     1     -14.927   2.878 -15.731  0.00  0.00    +0.093 C 
BRANCH   9  10
ATOM     10  N   UNL     1     -15.857   1.777 -15.462  0.00  0.00    -0.329 NA
ATOM     11  H   UNL     1     -16.184   1.845 -14.499  0.00  0.00    +0.118 HD
ATOM     12  H   UNL     1     -15.348   0.895 -15.524  0.00  0.00    +0.118 HD
ENDBRANCH   9  10
ENDBRANCH   8   9
ENDBRANCH   5   8
TORSDOF 3
ENDMDL
MODEL 8
REMARK VINA RESULT:      -3.4      1.565      3.628
REMARK  Name = min_compound3.pdb
REMARK  3 active torsions:
REMARK  status: ('A' for Active; 'I' for Inactive)
REMARK    1  A    between atoms: _3  and  _8
REMARK    2  A    between atoms: _8  and  _9
REMARK    3  A    between atoms: _9  and  _10
REMARK                            x       y       z     vdW  Elec       q    Type
REMARK                         _______ _______ _______ _____ _____    ______ ____
ROOT
ATOM      1  H   UNL     1     -14.124   3.965 -17.571  0.00  0.00    +0.122 HD
ATOM      2  N   UNL     1     -13.581   3.385 -16.932  0.00  0.00    -0.314 NA
ATOM      3  C   UNL     1     -13.136   2.181 -17.678  0.00  0.00    +0.096 C 
ATOM      4  C   UNL     1     -12.415   1.077 -16.677  0.00  0.00    +0.099 C 
ATOM      5  N   UNL     1     -11.102   1.765 -16.452  0.00  0.00    -0.299 NA
ATOM      6  C   UNL     1     -11.563   2.977 -15.696  0.00  0.00    +0.099 C 
ATOM      7  C   UNL     1     -12.268   4.073 -16.707  0.00  0.00    +0.096 C 
ENDROOT
BRANCH   5   8
ATOM      8  C   UNL     1     -10.270   0.945 -15.538  0.00  0.00    +0.099 C 
BRANCH   8   9
ATOM      9  C   UNL     1      -9.699  -0.328 -16.198  0.00  0.00    +0.093 C 
BRANCH   9  10
ATOM     10  N   UNL     1      -9.064  -0.031 -17.485  0.00  0.00    -0.329 NA
ATOM     11  H   UNL     1      -9.057  -0.874 -18.056  0.00  0.00    +0.118 HD
ATOM     12  H   UNL     1      -8.085   0.207 -17.322  0.00  0.00    +0.118 HD
ENDBRANCH   9  10
ENDBRANCH   8   9
ENDBRANCH   5   8
TORSDOF 3
ENDMDL
MODEL 9
REMARK VINA RESULT:      -3.3     11.800     12.939
REMARK  Name = min_compound3.pdb
REMARK  3 active torsions:
REMARK  status: ('A' for Active; 'I' for Inactive)
REMARK    1  A    between atoms: _3  and  _8
REMARK    2  A    between atoms: _8  and  _9
REMARK    3  A    between atoms: _9  and  _10
REMARK                            x       y       z     vdW  Elec       q    Type
REMARK                         _______ _______ _______ _____ _____    ______ ____
ROOT
ATOM      1  H   UNL     1     -14.660   3.406  -3.025  0.00  0.00    +0.122 HD
ATOM      2  N   UNL     1     -14.581   2.850  -3.876  0.00  0.00    -0.314 NA
ATOM      3  C   UNL     1     -14.088   1.502  -3.495  0.00  0.00    +0.096 C 
ATOM      4  C   UNL     1     -13.736   0.584  -4.826  0.00  0.00    +0.099 C 
ATOM      5  N   UNL     1     -15.127   0.254  -5.276  0.00  0.00    -0.299 NA
ATOM      6  C   UNL     1     -15.613   1.620  -5.662  0.00  0.00    +0.099 C 
ATOM      7  C   UNL     1     -15.972   2.519  -4.326  0.00  0.00    +0.096 C 
ENDROOT
BRANCH   5   8
ATOM      8  C   UNL     1     -15.061  -0.572  -6.507  0.00  0.00    +0.099 C 
BRANCH   8   9
ATOM      9  C   UNL     1     -16.442  -0.862  -7.130  0.00  0.00    +0.093 C 
BRANCH   9  10
ATOM     10  N   UNL     1     -17.368  -1.435  -6.148  0.00  0.00    -0.329 NA
ATOM     11  H   UNL     1     -16.947  -2.267  -5.737  0.00  0.00    +0.118 HD
ATOM     12  H   UNL     1     -18.206  -1.755  -6.634  0.00  0.00    +0.118 HD
ENDBRANCH   9  10
ENDBRANCH   8   9
ENDBRANCH   5   8
TORSDOF 3
ENDMDL
