MODEL 1
REMARK VINA RESULT:      -7.7      0.000      0.000
REMARK  Name = min_compound988.pdb
REMARK  7 active torsions:
REMARK  status: ('A' for Active; 'I' for Inactive)
REMARK    1  A    between atoms: _2  and  _21
REMARK    2  A    between atoms: _8  and  _14
REMARK    3  A    between atoms: _10  and  _12
REMARK    4  A    between atoms: _13  and  _14
REMARK    5  A    between atoms: _13  and  _17
REMARK    6  A    between atoms: _14  and  _15
REMARK    7  A    between atoms: _14  and  _16
REMARK                            x       y       z     vdW  Elec       q    Type
REMARK                         _______ _______ _______ _____ _____    ______ ____
ROOT
ATOM      1  O   UNL     1     -14.681   3.797 -15.808  0.00  0.00    -0.342 OA
ENDROOT
BRANCH   1   3
ATOM      2  N   UNL     1     -13.524   1.924 -16.349  0.00  0.00    -0.216 NA
ATOM      3  C   UNL     1     -13.449   3.215 -15.959  0.00  0.00    +0.248 A 
ATOM      4  C   UNL     1     -12.231   3.858 -15.682  0.00  0.00    +0.092 A 
ATOM      5  C   UNL     1     -11.022   3.173 -15.832  0.00  0.00    +0.035 A 
ATOM      6  C   UNL     1     -11.107   1.834 -16.155  0.00  0.00    -0.005 A 
ATOM      7  C   UNL     1     -10.034   0.795 -16.199  0.00  0.00    +0.039 C 
ATOM      8  C   UNL     1     -10.738  -0.341 -16.954  0.00  0.00    +0.011 C 
ATOM      9  C   UNL     1     -12.234  -0.210 -16.642  0.00  0.00    +0.056 C 
ATOM     10  C   UNL     1     -12.353   1.270 -16.409  0.00  0.00    +0.050 A 
BRANCH   5  11
ATOM     11  N   UNL     1      -9.823   3.754 -15.418  0.00  0.00    -0.358 N 
ATOM     12  H   UNL     1      -9.531   3.519 -14.473  0.00  0.00    +0.142 HD
ATOM     13  H   UNL     1      -9.746   4.749 -15.603  0.00  0.00    +0.142 HD
ENDBRANCH   5  11
ENDBRANCH   1   3
BRANCH   1  14
ATOM     14  S   UNL     1     -15.939   2.987 -15.708  0.00  0.00    -0.013 S 
BRANCH  14  15
ATOM     15  C   UNL     1     -16.048   3.435 -13.804  0.00  0.00    +0.098 A 
ATOM     16  C   UNL     1     -15.146   4.351 -13.239  0.00  0.00    +0.028 A 
ATOM     17  C   UNL     1     -15.247   4.674 -11.883  0.00  0.00    +0.005 A 
ATOM     18  C   UNL     1     -16.233   4.088 -11.080  0.00  0.00    -0.050 A 
ATOM     19  C   UNL     1     -16.372   4.487  -9.640  0.00  0.00    +0.044 C 
ATOM     20  C   UNL     1     -17.135   3.183 -11.654  0.00  0.00    +0.005 A 
ATOM     21  C   UNL     1     -17.043   2.848 -13.008  0.00  0.00    +0.028 A 
ENDBRANCH  14  15
BRANCH  14  22
ATOM     22  O   UNL     1     -16.628   4.145 -16.342  0.00  0.00    -0.263 OA
ATOM     23  H   UNL     1     -17.425   3.835 -16.799  0.00  0.00    +0.244 HD
ENDBRANCH  14  22
BRANCH  14  24
ATOM     24  O   UNL     1     -17.198   2.177 -15.607  0.00  0.00    -0.263 OA
ATOM     25  H   UNL     1     -17.966   2.757 -15.727  0.00  0.00    +0.244 HD
ENDBRANCH  14  24
ENDBRANCH   1  14
TORSDOF 6
ENDMDL
MODEL 2
REMARK VINA RESULT:      -7.1      1.332      2.258
REMARK  Name = min_compound988.pdb
REMARK  7 active torsions:
REMARK  status: ('A' for Active; 'I' for Inactive)
REMARK    1  A    between atoms: _2  and  _21
REMARK    2  A    between atoms: _8  and  _14
REMARK    3  A    between atoms: _10  and  _12
REMARK    4  A    between atoms: _13  and  _14
REMARK    5  A    between atoms: _13  and  _17
REMARK    6  A    between atoms: _14  and  _15
REMARK    7  A    between atoms: _14  and  _16
REMARK                            x       y       z     vdW  Elec       q    Type
REMARK                         _______ _______ _______ _____ _____    ______ ____
ROOT
ATOM      1  O   UNL     1     -13.914   4.267 -15.665  0.00  0.00    -0.342 OA
ENDROOT
BRANCH   1   3
ATOM      2  N   UNL     1     -12.281   2.708 -15.470  0.00  0.00    -0.216 NA
ATOM      3  C   UNL     1     -13.226   3.247 -16.270  0.00  0.00    +0.248 A 
ATOM      4  C   UNL     1     -13.427   2.835 -17.598  0.00  0.00    +0.092 A 
ATOM      5  C   UNL     1     -12.653   1.807 -18.142  0.00  0.00    +0.035 A 
ATOM      6  C   UNL     1     -11.638   1.312 -17.348  0.00  0.00    -0.005 A 
ATOM      7  C   UNL     1     -10.534   0.366 -17.694  0.00  0.00    +0.039 C 
ATOM      8  C   UNL     1     -10.009  -0.014 -16.303  0.00  0.00    +0.011 C 
ATOM      9  C   UNL     1     -10.283   1.188 -15.391  0.00  0.00    +0.056 C 
ATOM     10  C   UNL     1     -11.501   1.776 -16.044  0.00  0.00    +0.050 A 
BRANCH   5  11
ATOM     11  N   UNL     1     -12.743   1.494 -19.499  0.00  0.00    -0.358 N 
ATOM     12  H   UNL     1     -12.213   0.678 -19.791  0.00  0.00    +0.142 HD
ATOM     13  H   UNL     1     -12.609   2.281 -20.125  0.00  0.00    +0.142 HD
ENDBRANCH   5  11
ENDBRANCH   1   3
BRANCH   1  14
ATOM     14  S   UNL     1     -15.359   4.540 -15.959  0.00  0.00    -0.013 S 
BRANCH  14  15
ATOM     15  C   UNL     1     -15.789   4.156 -14.088  0.00  0.00    +0.098 A 
ATOM     16  C   UNL     1     -16.810   3.247 -13.768  0.00  0.00    +0.028 A 
ATOM     17  C   UNL     1     -17.093   2.969 -12.428  0.00  0.00    +0.005 A 
ATOM     18  C   UNL     1     -16.376   3.594 -11.400  0.00  0.00    -0.050 A 
ATOM     19  C   UNL     1     -16.646   3.245  -9.967  0.00  0.00    +0.044 C 
ATOM     20  C   UNL     1     -15.352   4.492 -11.729  0.00  0.00    +0.005 A 
ATOM     21  C   UNL     1     -15.060   4.782 -13.066  0.00  0.00    +0.028 A 
ENDBRANCH  14  15
BRANCH  14  22
ATOM     22  O   UNL     1     -15.003   5.985 -15.909  0.00  0.00    -0.263 OA
ATOM     23  H   UNL     1     -14.421   6.148 -15.151  0.00  0.00    +0.244 HD
ENDBRANCH  14  22
BRANCH  14  24
ATOM     24  O   UNL     1     -16.804   4.814 -16.254  0.00  0.00    -0.263 OA
ATOM     25  H   UNL     1     -17.040   5.695 -15.926  0.00  0.00    +0.244 HD
ENDBRANCH  14  24
ENDBRANCH   1  14
TORSDOF 6
ENDMDL
MODEL 3
REMARK VINA RESULT:      -7.1      4.518      6.451
REMARK  Name = min_compound988.pdb
REMARK  7 active torsions:
REMARK  status: ('A' for Active; 'I' for Inactive)
REMARK    1  A    between atoms: _2  and  _21
REMARK    2  A    between atoms: _8  and  _14
REMARK    3  A    between atoms: _10  and  _12
REMARK    4  A    between atoms: _13  and  _14
REMARK    5  A    between atoms: _13  and  _17
REMARK    6  A    between atoms: _14  and  _15
REMARK    7  A    between atoms: _14  and  _16
REMARK                            x       y       z     vdW  Elec       q    Type
REMARK                         _______ _______ _______ _____ _____    ______ ____
ROOT
ATOM      1  O   UNL     1     -13.163   3.044 -19.164  0.00  0.00    -0.342 OA
ENDROOT
BRANCH   1   3
ATOM      2  N   UNL     1     -12.167   1.270 -18.164  0.00  0.00    -0.216 NA
ATOM      3  C   UNL     1     -12.286   2.615 -18.202  0.00  0.00    +0.248 A 
ATOM      4  C   UNL     1     -11.620   3.465 -17.303  0.00  0.00    +0.092 A 
ATOM      5  C   UNL     1     -10.768   2.934 -16.330  0.00  0.00    +0.035 A 
ATOM      6  C   UNL     1     -10.711   1.559 -16.244  0.00  0.00    -0.005 A 
ATOM      7  C   UNL     1     -10.061   0.694 -15.212  0.00  0.00    +0.039 C 
ATOM      8  C   UNL     1     -10.076  -0.675 -15.904  0.00  0.00    +0.011 C 
ATOM      9  C   UNL     1     -11.291  -0.676 -16.840  0.00  0.00    +0.056 C 
ATOM     10  C   UNL     1     -11.404   0.786 -17.170  0.00  0.00    +0.050 A 
BRANCH   5  11
ATOM     11  N   UNL     1     -10.222   3.756 -15.343  0.00  0.00    -0.358 N 
ATOM     12  H   UNL     1      -9.220   3.662 -15.208  0.00  0.00    +0.142 HD
ATOM     13  H   UNL     1     -10.727   3.755 -14.463  0.00  0.00    +0.142 HD
ENDBRANCH   5  11
ENDBRANCH   1   3
BRANCH   1  14
ATOM     14  S   UNL     1     -14.145   4.149 -18.914  0.00  0.00    -0.013 S 
BRANCH  14  15
ATOM     15  C   UNL     1     -13.040   5.346 -20.002  0.00  0.00    +0.098 A 
ATOM     16  C   UNL     1     -13.023   5.219 -21.400  0.00  0.00    +0.028 A 
ATOM     17  C   UNL     1     -12.244   6.092 -22.164  0.00  0.00    +0.005 A 
ATOM     18  C   UNL     1     -11.473   7.087 -21.549  0.00  0.00    -0.050 A 
ATOM     19  C   UNL     1     -10.687   8.057 -22.381  0.00  0.00    +0.044 C 
ATOM     20  C   UNL     1     -11.505   7.213 -20.155  0.00  0.00    +0.005 A 
ATOM     21  C   UNL     1     -12.277   6.344 -19.378  0.00  0.00    +0.028 A 
ENDBRANCH  14  15
BRANCH  14  22
ATOM     22  O   UNL     1     -15.004   3.496 -19.940  0.00  0.00    -0.263 OA
ATOM     23  H   UNL     1     -15.924   3.779 -19.819  0.00  0.00    +0.244 HD
ENDBRANCH  14  22
BRANCH  14  24
ATOM     24  O   UNL     1     -15.128   5.255 -18.664  0.00  0.00    -0.263 OA
ATOM     25  H   UNL     1     -15.531   5.137 -17.790  0.00  0.00    +0.244 HD
ENDBRANCH  14  24
ENDBRANCH   1  14
TORSDOF 6
ENDMDL
MODEL 4
REMARK VINA RESULT:      -7.0      2.236      6.554
REMARK  Name = min_compound988.pdb
REMARK  7 active torsions:
REMARK  status: ('A' for Active; 'I' for Inactive)
REMARK    1  A    between atoms: _2  and  _21
REMARK    2  A    between atoms: _8  and  _14
REMARK    3  A    between atoms: _10  and  _12
REMARK    4  A    between atoms: _13  and  _14
REMARK    5  A    between atoms: _13  and  _17
REMARK    6  A    between atoms: _14  and  _15
REMARK    7  A    between atoms: _14  and  _16
REMARK                            x       y       z     vdW  Elec       q    Type
REMARK                         _______ _______ _______ _____ _____    ______ ____
ROOT
ATOM      1  O   UNL     1     -13.803   3.911 -17.361  0.00  0.00    -0.342 OA
ENDROOT
BRANCH   1   3
ATOM      2  N   UNL     1     -14.354   4.290 -15.195  0.00  0.00    -0.216 NA
ATOM      3  C   UNL     1     -14.772   3.831 -16.395  0.00  0.00    +0.248 A 
ATOM      4  C   UNL     1     -16.047   3.277 -16.596  0.00  0.00    +0.092 A 
ATOM      5  C   UNL     1     -16.960   3.206 -15.541  0.00  0.00    +0.035 A 
ATOM      6  C   UNL     1     -16.503   3.604 -14.301  0.00  0.00    -0.005 A 
ATOM      7  C   UNL     1     -17.150   3.475 -12.960  0.00  0.00    +0.039 C 
ATOM      8  C   UNL     1     -16.284   4.413 -12.110  0.00  0.00    +0.011 C 
ATOM      9  C   UNL     1     -14.887   4.411 -12.744  0.00  0.00    +0.056 C 
ATOM     10  C   UNL     1     -15.223   4.137 -14.183  0.00  0.00    +0.050 A 
BRANCH   5  11
ATOM     11  N   UNL     1     -18.168   2.525 -15.694  0.00  0.00    -0.358 N 
ATOM     12  H   UNL     1     -18.117   1.671 -16.243  0.00  0.00    +0.142 HD
ATOM     13  H   UNL     1     -18.952   3.108 -15.969  0.00  0.00    +0.142 HD
ENDBRANCH   5  11
ENDBRANCH   1   3
BRANCH   1  14
ATOM     14  S   UNL     1     -12.487   4.588 -17.118  0.00  0.00    -0.013 S 
BRANCH  14  15
ATOM     15  C   UNL     1     -11.665   2.835 -16.824  0.00  0.00    +0.098 A 
ATOM     16  C   UNL     1     -11.798   1.820 -17.785  0.00  0.00    +0.028 A 
ATOM     17  C   UNL     1     -11.190   0.580 -17.569  0.00  0.00    +0.005 A 
ATOM     18  C   UNL     1     -10.459   0.335 -16.400  0.00  0.00    -0.050 A 
ATOM     19  C   UNL     1      -9.760  -0.978 -16.205  0.00  0.00    +0.044 C 
ATOM     20  C   UNL     1     -10.324   1.357 -15.452  0.00  0.00    +0.005 A 
ATOM     21  C   UNL     1     -10.929   2.601 -15.653  0.00  0.00    +0.028 A 
ENDBRANCH  14  15
BRANCH  14  22
ATOM     22  O   UNL     1     -12.392   4.736 -18.596  0.00  0.00    -0.263 OA
ATOM     23  H   UNL     1     -13.258   4.562 -18.995  0.00  0.00    +0.244 HD
ENDBRANCH  14  22
BRANCH  14  24
ATOM     24  O   UNL     1     -11.171   5.265 -16.875  0.00  0.00    -0.263 OA
ATOM     25  H   UNL     1     -11.273   6.223 -16.990  0.00  0.00    +0.244 HD
ENDBRANCH  14  24
ENDBRANCH   1  14
TORSDOF 6
ENDMDL
MODEL 5
REMARK VINA RESULT:      -7.0      2.004      2.631
REMARK  Name = min_compound988.pdb
REMARK  7 active torsions:
REMARK  status: ('A' for Active; 'I' for Inactive)
REMARK    1  A    between atoms: _2  and  _21
REMARK    2  A    between atoms: _8  and  _14
REMARK    3  A    between atoms: _10  and  _12
REMARK    4  A    between atoms: _13  and  _14
REMARK    5  A    between atoms: _13  and  _17
REMARK    6  A    between atoms: _14  and  _15
REMARK    7  A    between atoms: _14  and  _16
REMARK                            x       y       z     vdW  Elec       q    Type
REMARK                         _______ _______ _______ _____ _____    ______ ____
ROOT
ATOM      1  O   UNL     1     -14.979   2.989 -16.158  0.00  0.00    -0.342 OA
ENDROOT
BRANCH   1   3
ATOM      2  N   UNL     1     -13.497   1.308 -16.495  0.00  0.00    -0.216 NA
ATOM      3  C   UNL     1     -13.662   2.608 -16.169  0.00  0.00    +0.248 A 
ATOM      4  C   UNL     1     -12.592   3.449 -15.823  0.00  0.00    +0.092 A 
ATOM      5  C   UNL     1     -11.282   2.964 -15.831  0.00  0.00    +0.035 A 
ATOM      6  C   UNL     1     -11.125   1.617 -16.087  0.00  0.00    -0.005 A 
ATOM      7  C   UNL     1      -9.902   0.764 -15.982  0.00  0.00    +0.039 C 
ATOM      8  C   UNL     1     -10.344  -0.499 -16.733  0.00  0.00    +0.011 C 
ATOM      9  C   UNL     1     -11.864  -0.600 -16.559  0.00  0.00    +0.056 C 
ATOM     10  C   UNL     1     -12.236   0.849 -16.418  0.00  0.00    +0.050 A 
BRANCH   5  11
ATOM     11  N   UNL     1     -10.234   3.747 -15.346  0.00  0.00    -0.358 N 
ATOM     12  H   UNL     1     -10.188   3.830 -14.334  0.00  0.00    +0.142 HD
ATOM     13  H   UNL     1     -10.125   4.644 -15.808  0.00  0.00    +0.142 HD
ENDBRANCH   5  11
ENDBRANCH   1   3
BRANCH   1  14
ATOM     14  S   UNL     1     -15.826   2.896 -14.924  0.00  0.00    -0.013 S 
BRANCH  14  15
ATOM     15  C   UNL     1     -15.860   4.853 -14.829  0.00  0.00    +0.098 A 
ATOM     16  C   UNL     1     -15.888   5.618 -16.005  0.00  0.00    +0.028 A 
ATOM     17  C   UNL     1     -15.930   7.013 -15.921  0.00  0.00    +0.005 A 
ATOM     18  C   UNL     1     -15.936   7.655 -14.676  0.00  0.00    -0.050 A 
ATOM     19  C   UNL     1     -16.043   9.149 -14.595  0.00  0.00    +0.044 C 
ATOM     20  C   UNL     1     -15.918   6.882 -13.508  0.00  0.00    +0.005 A 
ATOM     21  C   UNL     1     -15.873   5.486 -13.577  0.00  0.00    +0.028 A 
ENDBRANCH  14  15
BRANCH  14  22
ATOM     22  O   UNL     1     -16.966   2.607 -15.837  0.00  0.00    -0.263 OA
ATOM     23  H   UNL     1     -17.732   3.143 -15.578  0.00  0.00    +0.244 HD
ENDBRANCH  14  22
BRANCH  14  24
ATOM     24  O   UNL     1     -16.673   2.804 -13.689  0.00  0.00    -0.263 OA
ATOM     25  H   UNL     1     -16.832   3.694 -13.338  0.00  0.00    +0.244 HD
ENDBRANCH  14  24
ENDBRANCH   1  14
TORSDOF 6
ENDMDL
MODEL 6
REMARK VINA RESULT:      -7.0      3.899      6.322
REMARK  Name = min_compound988.pdb
REMARK  7 active torsions:
REMARK  status: ('A' for Active; 'I' for Inactive)
REMARK    1  A    between atoms: _2  and  _21
REMARK    2  A    between atoms: _8  and  _14
REMARK    3  A    between atoms: _10  and  _12
REMARK    4  A    between atoms: _13  and  _14
REMARK    5  A    between atoms: _13  and  _17
REMARK    6  A    between atoms: _14  and  _15
REMARK    7  A    between atoms: _14  and  _16
REMARK                            x       y       z     vdW  Elec       q    Type
REMARK                         _______ _______ _______ _____ _____    ______ ____
ROOT
ATOM      1  O   UNL     1     -13.154   4.195 -16.780  0.00  0.00    -0.342 OA
ENDROOT
BRANCH   1   3
ATOM      2  N   UNL     1     -12.201   5.554 -18.323  0.00  0.00    -0.216 NA
ATOM      3  C   UNL     1     -13.030   4.510 -18.108  0.00  0.00    +0.248 A 
ATOM      4  C   UNL     1     -13.728   3.866 -19.144  0.00  0.00    +0.092 A 
ATOM      5  C   UNL     1     -13.564   4.279 -20.468  0.00  0.00    +0.035 A 
ATOM      6  C   UNL     1     -12.779   5.394 -20.674  0.00  0.00    -0.005 A 
ATOM      7  C   UNL     1     -12.562   6.190 -21.921  0.00  0.00    +0.039 C 
ATOM      8  C   UNL     1     -11.341   7.036 -21.536  0.00  0.00    +0.011 C 
ATOM      9  C   UNL     1     -11.407   7.230 -20.016  0.00  0.00    +0.056 C 
ATOM     10  C   UNL     1     -12.123   5.978 -19.595  0.00  0.00    +0.050 A 
BRANCH   5  11
ATOM     11  N   UNL     1     -14.364   3.746 -21.480  0.00  0.00    -0.358 N 
ATOM     12  H   UNL     1     -15.334   3.586 -21.226  0.00  0.00    +0.142 HD
ATOM     13  H   UNL     1     -13.961   2.951 -21.966  0.00  0.00    +0.142 HD
ENDBRANCH   5  11
ENDBRANCH   1   3
BRANCH   1  14
ATOM     14  S   UNL     1     -14.112   3.148 -16.294  0.00  0.00    -0.013 S 
BRANCH  14  15
ATOM     15  C   UNL     1     -12.636   1.862 -16.224  0.00  0.00    +0.098 A 
ATOM     16  C   UNL     1     -12.795   0.572 -16.754  0.00  0.00    +0.028 A 
ATOM     17  C   UNL     1     -11.726  -0.328 -16.713  0.00  0.00    +0.005 A 
ATOM     18  C   UNL     1     -10.502   0.040 -16.140  0.00  0.00    -0.050 A 
ATOM     19  C   UNL     1      -9.343  -0.913 -16.155  0.00  0.00    +0.044 C 
ATOM     20  C   UNL     1     -10.350   1.332 -15.623  0.00  0.00    +0.005 A 
ATOM     21  C   UNL     1     -11.411   2.242 -15.655  0.00  0.00    +0.028 A 
ENDBRANCH  14  15
BRANCH  14  22
ATOM     22  O   UNL     1     -14.017   3.808 -14.963  0.00  0.00    -0.263 OA
ATOM     23  H   UNL     1     -14.635   4.554 -14.927  0.00  0.00    +0.244 HD
ENDBRANCH  14  22
BRANCH  14  24
ATOM     24  O   UNL     1     -15.070   2.101 -15.808  0.00  0.00    -0.263 OA
ATOM     25  H   UNL     1     -15.061   2.080 -14.838  0.00  0.00    +0.244 HD
ENDBRANCH  14  24
ENDBRANCH   1  14
TORSDOF 6
ENDMDL
MODEL 7
REMARK VINA RESULT:      -6.9      3.141      6.886
REMARK  Name = min_compound988.pdb
REMARK  7 active torsions:
REMARK  status: ('A' for Active; 'I' for Inactive)
REMARK    1  A    between atoms: _2  and  _21
REMARK    2  A    between atoms: _8  and  _14
REMARK    3  A    between atoms: _10  and  _12
REMARK    4  A    between atoms: _13  and  _14
REMARK    5  A    between atoms: _13  and  _17
REMARK    6  A    between atoms: _14  and  _15
REMARK    7  A    between atoms: _14  and  _16
REMARK                            x       y       z     vdW  Elec       q    Type
REMARK                         _______ _______ _______ _____ _____    ______ ____
ROOT
ATOM      1  O   UNL     1     -13.917   3.732 -16.139  0.00  0.00    -0.342 OA
ENDROOT
BRANCH   1   3
ATOM      2  N   UNL     1     -14.559   5.881 -16.468  0.00  0.00    -0.216 NA
ATOM      3  C   UNL     1     -14.583   4.819 -15.633  0.00  0.00    +0.248 A 
ATOM      4  C   UNL     1     -15.179   4.862 -14.362  0.00  0.00    +0.092 A 
ATOM      5  C   UNL     1     -15.808   6.027 -13.917  0.00  0.00    +0.035 A 
ATOM      6  C   UNL     1     -15.713   7.132 -14.738  0.00  0.00    -0.005 A 
ATOM      7  C   UNL     1     -16.101   8.551 -14.475  0.00  0.00    +0.039 C 
ATOM      8  C   UNL     1     -16.060   9.148 -15.888  0.00  0.00    +0.011 C 
ATOM      9  C   UNL     1     -15.015   8.342 -16.670  0.00  0.00    +0.056 C 
ATOM     10  C   UNL     1     -15.102   7.009 -15.982  0.00  0.00    +0.050 A 
BRANCH   5  11
ATOM     11  N   UNL     1     -16.269   6.126 -12.603  0.00  0.00    -0.358 N 
ATOM     12  H   UNL     1     -15.546   6.239 -11.898  0.00  0.00    +0.142 HD
ATOM     13  H   UNL     1     -16.952   5.423 -12.339  0.00  0.00    +0.142 HD
ENDBRANCH   5  11
ENDBRANCH   1   3
BRANCH   1  14
ATOM     14  S   UNL     1     -13.342   3.721 -17.524  0.00  0.00    -0.013 S 
BRANCH  14  15
ATOM     15  C   UNL     1     -12.179   2.234 -17.004  0.00  0.00    +0.098 A 
ATOM     16  C   UNL     1     -12.174   1.045 -17.750  0.00  0.00    +0.028 A 
ATOM     17  C   UNL     1     -11.325  -0.002 -17.377  0.00  0.00    +0.005 A 
ATOM     18  C   UNL     1     -10.486   0.120 -16.262  0.00  0.00    -0.050 A 
ATOM     19  C   UNL     1      -9.536  -0.984 -15.905  0.00  0.00    +0.044 C 
ATOM     20  C   UNL     1     -10.491   1.314 -15.530  0.00  0.00    +0.005 A 
ATOM     21  C   UNL     1     -11.337   2.368 -15.889  0.00  0.00    +0.028 A 
ENDBRANCH  14  15
BRANCH  14  22
ATOM     22  O   UNL     1     -14.587   3.017 -17.938  0.00  0.00    -0.263 OA
ATOM     23  H   UNL     1     -14.358   2.157 -18.324  0.00  0.00    +0.244 HD
ENDBRANCH  14  22
BRANCH  14  24
ATOM     24  O   UNL     1     -12.766   3.711 -18.909  0.00  0.00    -0.263 OA
ATOM     25  H   UNL     1     -12.422   4.592 -19.123  0.00  0.00    +0.244 HD
ENDBRANCH  14  24
ENDBRANCH   1  14
TORSDOF 6
ENDMDL
MODEL 8
REMARK VINA RESULT:      -6.8      2.359      6.451
REMARK  Name = min_compound988.pdb
REMARK  7 active torsions:
REMARK  status: ('A' for Active; 'I' for Inactive)
REMARK    1  A    between atoms: _2  and  _21
REMARK    2  A    between atoms: _8  and  _14
REMARK    3  A    between atoms: _10  and  _12
REMARK    4  A    between atoms: _13  and  _14
REMARK    5  A    between atoms: _13  and  _17
REMARK    6  A    between atoms: _14  and  _15
REMARK    7  A    between atoms: _14  and  _16
REMARK                            x       y       z     vdW  Elec       q    Type
REMARK                         _______ _______ _______ _____ _____    ______ ____
ROOT
ATOM      1  O   UNL     1     -14.136   3.632 -17.043  0.00  0.00    -0.342 OA
ENDROOT
BRANCH   1   3
ATOM      2  N   UNL     1     -15.367   3.122 -15.210  0.00  0.00    -0.216 NA
ATOM      3  C   UNL     1     -14.792   4.105 -15.937  0.00  0.00    +0.248 A 
ATOM      4  C   UNL     1     -14.915   5.466 -15.611  0.00  0.00    +0.092 A 
ATOM      5  C   UNL     1     -15.633   5.858 -14.478  0.00  0.00    +0.035 A 
ATOM      6  C   UNL     1     -16.284   4.859 -13.784  0.00  0.00    -0.005 A 
ATOM      7  C   UNL     1     -17.271   4.962 -12.666  0.00  0.00    +0.039 C 
ATOM      8  C   UNL     1     -17.306   3.517 -12.153  0.00  0.00    +0.011 C 
ATOM      9  C   UNL     1     -16.983   2.620 -13.355  0.00  0.00    +0.056 C 
ATOM     10  C   UNL     1     -16.115   3.533 -14.173  0.00  0.00    +0.050 A 
BRANCH   5  11
ATOM     11  N   UNL     1     -15.885   7.208 -14.232  0.00  0.00    -0.358 N 
ATOM     12  H   UNL     1     -16.551   7.395 -13.487  0.00  0.00    +0.142 HD
ATOM     13  H   UNL     1     -16.074   7.762 -15.060  0.00  0.00    +0.142 HD
ENDBRANCH   5  11
ENDBRANCH   1   3
BRANCH   1  14
ATOM     14  S   UNL     1     -12.846   4.228 -17.523  0.00  0.00    -0.013 S 
BRANCH  14  15
ATOM     15  C   UNL     1     -11.919   2.581 -17.009  0.00  0.00    +0.098 A 
ATOM     16  C   UNL     1     -12.107   1.403 -17.748  0.00  0.00    +0.028 A 
ATOM     17  C   UNL     1     -11.424   0.240 -17.379  0.00  0.00    +0.005 A 
ATOM     18  C   UNL     1     -10.563   0.235 -16.275  0.00  0.00    -0.050 A 
ATOM     19  C   UNL     1      -9.789  -1.001 -15.924  0.00  0.00    +0.044 C 
ATOM     20  C   UNL     1     -10.374   1.418 -15.550  0.00  0.00    +0.005 A 
ATOM     21  C   UNL     1     -11.053   2.588 -15.905  0.00  0.00    +0.028 A 
ENDBRANCH  14  15
BRANCH  14  22
ATOM     22  O   UNL     1     -13.314   3.909 -18.900  0.00  0.00    -0.263 OA
ATOM     23  H   UNL     1     -13.893   3.131 -18.872  0.00  0.00    +0.244 HD
ENDBRANCH  14  22
BRANCH  14  24
ATOM     24  O   UNL     1     -11.556   4.825 -18.003  0.00  0.00    -0.263 OA
ATOM     25  H   UNL     1     -11.147   4.232 -18.652  0.00  0.00    +0.244 HD
ENDBRANCH  14  24
ENDBRANCH   1  14
TORSDOF 6
ENDMDL
MODEL 9
REMARK VINA RESULT:      -6.7      5.168      8.050
REMARK  Name = min_compound988.pdb
REMARK  7 active torsions:
REMARK  status: ('A' for Active; 'I' for Inactive)
REMARK    1  A    between atoms: _2  and  _21
REMARK    2  A    between atoms: _8  and  _14
REMARK    3  A    between atoms: _10  and  _12
REMARK    4  A    between atoms: _13  and  _14
REMARK    5  A    between atoms: _13  and  _17
REMARK    6  A    between atoms: _14  and  _15
REMARK    7  A    between atoms: _14  and  _16
REMARK                            x       y       z     vdW  Elec       q    Type
REMARK                         _______ _______ _______ _____ _____    ______ ____
ROOT
ATOM      1  O   UNL     1     -17.589   3.307  -9.388  0.00  0.00    -0.342 OA
ENDROOT
BRANCH   1   3
ATOM      2  N   UNL     1     -15.926   2.290  -8.232  0.00  0.00    -0.216 NA
ATOM      3  C   UNL     1     -17.250   2.323  -8.496  0.00  0.00    +0.248 A 
ATOM      4  C   UNL     1     -18.159   1.401  -7.950  0.00  0.00    +0.092 A 
ATOM      5  C   UNL     1     -17.715   0.408  -7.073  0.00  0.00    +0.035 A 
ATOM      6  C   UNL     1     -16.353   0.329  -6.868  0.00  0.00    -0.005 A 
ATOM      7  C   UNL     1     -15.556  -0.716  -6.156  0.00  0.00    +0.039 C 
ATOM      8  C   UNL     1     -14.199  -0.015  -6.003  0.00  0.00    +0.011 C 
ATOM      9  C   UNL     1     -14.074   0.955  -7.185  0.00  0.00    +0.056 C 
ATOM     10  C   UNL     1     -15.518   1.278  -7.448  0.00  0.00    +0.050 A 
BRANCH   5  11
ATOM     11  N   UNL     1     -18.582  -0.599  -6.647  0.00  0.00    -0.358 N 
ATOM     12  H   UNL     1     -18.516  -1.473  -7.161  0.00  0.00    +0.142 HD
ATOM     13  H   UNL     1     -19.544  -0.304  -6.517  0.00  0.00    +0.142 HD
ENDBRANCH   5  11
ENDBRANCH   1   3
BRANCH   1  14
ATOM     14  S   UNL     1     -16.759   4.542  -9.568  0.00  0.00    -0.013 S 
BRANCH  14  15
ATOM     15  C   UNL     1     -16.433   4.025 -11.428  0.00  0.00    +0.098 A 
ATOM     16  C   UNL     1     -15.339   4.556 -12.130  0.00  0.00    +0.028 A 
ATOM     17  C   UNL     1     -15.110   4.163 -13.452  0.00  0.00    +0.005 A 
ATOM     18  C   UNL     1     -15.963   3.252 -14.086  0.00  0.00    -0.050 A 
ATOM     19  C   UNL     1     -15.674   2.791 -15.484  0.00  0.00    +0.044 C 
ATOM     20  C   UNL     1     -17.045   2.720 -13.374  0.00  0.00    +0.005 A 
ATOM     21  C   UNL     1     -17.290   3.106 -12.053  0.00  0.00    +0.028 A 
ENDBRANCH  14  15
BRANCH  14  22
ATOM     22  O   UNL     1     -18.046   5.284  -9.669  0.00  0.00    -0.263 OA
ATOM     23  H   UNL     1     -18.090   5.739 -10.524  0.00  0.00    +0.244 HD
ENDBRANCH  14  22
BRANCH  14  24
ATOM     24  O   UNL     1     -15.928   5.778  -9.748  0.00  0.00    -0.263 OA
ATOM     25  H   UNL     1     -16.089   6.152 -10.628  0.00  0.00    +0.244 HD
ENDBRANCH  14  24
ENDBRANCH   1  14
TORSDOF 6
ENDMDL
