MODEL 1
REMARK VINA RESULT:      -8.0      0.000      0.000
REMARK  Name = min_compound994.pdb
REMARK  6 active torsions:
REMARK  status: ('A' for Active; 'I' for Inactive)
REMARK    1  A    between atoms: _1  and  _12
REMARK    2  A    between atoms: _2  and  _21
REMARK    3  A    between atoms: _8  and  _23
REMARK    4  A    between atoms: _9  and  _23
REMARK    5  A    between atoms: _10  and  _24
REMARK    6  A    between atoms: _24  and  _26
REMARK                            x       y       z     vdW  Elec       q    Type
REMARK                         _______ _______ _______ _____ _____    ______ ____
ROOT
ATOM      1  C   UNL     1     -13.283   2.128 -16.365  0.00  0.00    +0.134 A 
ATOM      2  C   UNL     1     -12.101   1.341 -16.599  0.00  0.00    +0.028 A 
ATOM      3  C   UNL     1     -12.121  -0.069 -16.399  0.00  0.00    +0.012 A 
ATOM      4  C   UNL     1     -11.027  -0.902 -16.637  0.00  0.00    +0.001 A 
ATOM      5  C   UNL     1      -9.849  -0.345 -17.086  0.00  0.00    +0.001 A 
ATOM      6  C   UNL     1      -9.781   1.034 -17.279  0.00  0.00    +0.012 A 
ATOM      7  C   UNL     1     -10.872   1.918 -17.045  0.00  0.00    +0.028 A 
ATOM      8  C   UNL     1     -10.721   3.325 -17.268  0.00  0.00    +0.132 A 
ATOM      9  C   UNL     1     -11.905   4.112 -17.044  0.00  0.00    +0.029 A 
ATOM     10  C   UNL     1     -11.840   5.507 -17.284  0.00  0.00    +0.013 A 
ATOM     11  C   UNL     1     -12.935   6.359 -17.206  0.00  0.00    +0.017 A 
ATOM     12  C   UNL     1     -14.171   5.846 -16.845  0.00  0.00    +0.081 A 
ATOM     13  C   UNL     1     -14.284   4.490 -16.468  0.00  0.00    +0.057 A 
ATOM     14  C   UNL     1     -13.164   3.560 -16.611  0.00  0.00    +0.050 A 
ENDROOT
BRANCH  12  15
ATOM     15  C   UNL     1     -15.330   6.766 -17.017  0.00  0.00    +0.339 C 
ATOM     16  O   UNL     1     -16.449   6.394 -17.344  0.00  0.00    -0.245 OA
BRANCH  15  17
ATOM     17  O   UNL     1     -15.073   8.044 -16.650  0.00  0.00    -0.477 OA
ATOM     18  H   UNL     1     -14.174   8.092 -16.239  0.00  0.00    +0.295 HD
ENDBRANCH  15  17
ENDBRANCH  12  15
BRANCH  13  19
ATOM     19  N   UNL     1     -15.559   3.965 -16.019  0.00  0.00    -0.313 N 
ATOM     20  H   UNL     1     -15.573   2.999 -16.440  0.00  0.00    +0.152 HD
BRANCH  19  21
ATOM     21  C   UNL     1     -16.089   3.863 -14.702  0.00  0.00    +0.031 A 
ATOM     22  C   UNL     1     -15.366   4.488 -13.672  0.00  0.00    +0.023 A 
ATOM     23  C   UNL     1     -15.739   4.348 -12.334  0.00  0.00    +0.002 A 
ATOM     24  C   UNL     1     -16.842   3.567 -12.001  0.00  0.00    +0.000 A 
ATOM     25  C   UNL     1     -17.575   2.948 -13.011  0.00  0.00    +0.002 A 
ATOM     26  C   UNL     1     -17.204   3.100 -14.353  0.00  0.00    +0.023 A 
ENDBRANCH  19  21
ENDBRANCH  13  19
BRANCH   1  27
ATOM     27  O   UNL     1     -14.394   1.581 -15.983  0.00  0.00    -0.505 OA
ATOM     28  H   UNL     1     -14.492   0.649 -16.010  0.00  0.00    +0.292 HD
ENDBRANCH   1  27
BRANCH   8  29
ATOM     29  O   UNL     1      -9.602   3.846 -17.662  0.00  0.00    -0.506 OA
ATOM     30  H   UNL     1      -9.599   4.488 -18.345  0.00  0.00    +0.292 HD
ENDBRANCH   8  29
TORSDOF 6
ENDMDL
MODEL 2
REMARK VINA RESULT:      -7.9      3.920      6.283
REMARK  Name = min_compound994.pdb
REMARK  6 active torsions:
REMARK  status: ('A' for Active; 'I' for Inactive)
REMARK    1  A    between atoms: _1  and  _12
REMARK    2  A    between atoms: _2  and  _21
REMARK    3  A    between atoms: _8  and  _23
REMARK    4  A    between atoms: _9  and  _23
REMARK    5  A    between atoms: _10  and  _24
REMARK    6  A    between atoms: _24  and  _26
REMARK                            x       y       z     vdW  Elec       q    Type
REMARK                         _______ _______ _______ _____ _____    ______ ____
ROOT
ATOM      1  C   UNL     1     -13.559   2.758 -20.667  0.00  0.00    +0.134 A 
ATOM      2  C   UNL     1     -13.968   3.358 -21.910  0.00  0.00    +0.028 A 
ATOM      3  C   UNL     1     -14.486   2.552 -22.963  0.00  0.00    +0.012 A 
ATOM      4  C   UNL     1     -14.935   3.064 -24.182  0.00  0.00    +0.001 A 
ATOM      5  C   UNL     1     -14.874   4.424 -24.399  0.00  0.00    +0.001 A 
ATOM      6  C   UNL     1     -14.358   5.247 -23.399  0.00  0.00    +0.012 A 
ATOM      7  C   UNL     1     -13.888   4.765 -22.144  0.00  0.00    +0.028 A 
ATOM      8  C   UNL     1     -13.371   5.678 -21.168  0.00  0.00    +0.132 A 
ATOM      9  C   UNL     1     -12.970   5.081 -19.922  0.00  0.00    +0.029 A 
ATOM     10  C   UNL     1     -12.486   5.929 -18.895  0.00  0.00    +0.013 A 
ATOM     11  C   UNL     1     -12.166   5.492 -17.615  0.00  0.00    +0.017 A 
ATOM     12  C   UNL     1     -12.290   4.148 -17.305  0.00  0.00    +0.081 A 
ATOM     13  C   UNL     1     -12.644   3.225 -18.314  0.00  0.00    +0.057 A 
ATOM     14  C   UNL     1     -13.054   3.668 -19.646  0.00  0.00    +0.050 A 
ENDROOT
BRANCH  12  15
ATOM     15  C   UNL     1     -12.162   3.800 -15.862  0.00  0.00    +0.339 C 
ATOM     16  O   UNL     1     -13.094   3.409 -15.172  0.00  0.00    -0.245 OA
BRANCH  15  17
ATOM     17  O   UNL     1     -10.887   3.826 -15.405  0.00  0.00    -0.477 OA
ATOM     18  H   UNL     1     -10.896   3.879 -14.416  0.00  0.00    +0.295 HD
ENDBRANCH  15  17
ENDBRANCH  12  15
BRANCH  13  19
ATOM     19  N   UNL     1     -12.703   1.808 -18.014  0.00  0.00    -0.313 N 
ATOM     20  H   UNL     1     -13.096   1.398 -18.902  0.00  0.00    +0.152 HD
BRANCH  19  21
ATOM     21  C   UNL     1     -11.681   0.930 -17.557  0.00  0.00    +0.031 A 
ATOM     22  C   UNL     1     -12.076  -0.140 -16.736  0.00  0.00    +0.023 A 
ATOM     23  C   UNL     1     -11.137  -0.987 -16.143  0.00  0.00    +0.002 A 
ATOM     24  C   UNL     1      -9.779  -0.770 -16.355  0.00  0.00    +0.000 A 
ATOM     25  C   UNL     1      -9.370   0.280 -17.174  0.00  0.00    +0.002 A 
ATOM     26  C   UNL     1     -10.315   1.121 -17.775  0.00  0.00    +0.023 A 
ENDBRANCH  19  21
ENDBRANCH  13  19
BRANCH   1  27
ATOM     27  O   UNL     1     -13.662   1.481 -20.467  0.00  0.00    -0.505 OA
ATOM     28  H   UNL     1     -14.506   1.094 -20.337  0.00  0.00    +0.292 HD
ENDBRANCH   1  27
BRANCH   8  29
ATOM     29  O   UNL     1     -13.289   6.952 -21.389  0.00  0.00    -0.506 OA
ATOM     30  H   UNL     1     -12.940   7.265 -22.201  0.00  0.00    +0.292 HD
ENDBRANCH   8  29
TORSDOF 6
ENDMDL
MODEL 3
REMARK VINA RESULT:      -7.6      1.819      5.995
REMARK  Name = min_compound994.pdb
REMARK  6 active torsions:
REMARK  status: ('A' for Active; 'I' for Inactive)
REMARK    1  A    between atoms: _1  and  _12
REMARK    2  A    between atoms: _2  and  _21
REMARK    3  A    between atoms: _8  and  _23
REMARK    4  A    between atoms: _9  and  _23
REMARK    5  A    between atoms: _10  and  _24
REMARK    6  A    between atoms: _24  and  _26
REMARK                            x       y       z     vdW  Elec       q    Type
REMARK                         _______ _______ _______ _____ _____    ______ ____
ROOT
ATOM      1  C   UNL     1     -15.289   4.020 -15.251  0.00  0.00    +0.134 A 
ATOM      2  C   UNL     1     -16.102   4.169 -14.072  0.00  0.00    +0.028 A 
ATOM      3  C   UNL     1     -16.542   3.024 -13.349  0.00  0.00    +0.012 A 
ATOM      4  C   UNL     1     -17.302   3.089 -12.181  0.00  0.00    +0.001 A 
ATOM      5  C   UNL     1     -17.662   4.325 -11.686  0.00  0.00    +0.001 A 
ATOM      6  C   UNL     1     -17.266   5.472 -12.373  0.00  0.00    +0.012 A 
ATOM      7  C   UNL     1     -16.493   5.448 -13.569  0.00  0.00    +0.028 A 
ATOM      8  C   UNL     1     -16.126   6.673 -14.215  0.00  0.00    +0.132 A 
ATOM      9  C   UNL     1     -15.306   6.525 -15.388  0.00  0.00    +0.029 A 
ATOM     10  C   UNL     1     -14.871   7.697 -16.056  0.00  0.00    +0.013 A 
ATOM     11  C   UNL     1     -13.994   7.695 -17.134  0.00  0.00    +0.017 A 
ATOM     12  C   UNL     1     -13.524   6.488 -17.624  0.00  0.00    +0.081 A 
ATOM     13  C   UNL     1     -14.012   5.276 -17.091  0.00  0.00    +0.057 A 
ATOM     14  C   UNL     1     -14.879   5.252 -15.912  0.00  0.00    +0.050 A 
ENDROOT
BRANCH  12  15
ATOM     15  C   UNL     1     -12.413   6.578 -18.613  0.00  0.00    +0.339 C 
ATOM     16  O   UNL     1     -12.315   5.853 -19.594  0.00  0.00    -0.245 OA
BRANCH  15  17
ATOM     17  O   UNL     1     -11.581   7.627 -18.406  0.00  0.00    -0.477 OA
ATOM     18  H   UNL     1     -11.061   7.473 -17.578  0.00  0.00    +0.295 HD
ENDBRANCH  15  17
ENDBRANCH  12  15
BRANCH  13  19
ATOM     19  N   UNL     1     -13.580   4.009 -17.649  0.00  0.00    -0.313 N 
ATOM     20  H   UNL     1     -13.568   4.204 -18.685  0.00  0.00    +0.152 HD
BRANCH  19  21
ATOM     21  C   UNL     1     -12.428   3.228 -17.351  0.00  0.00    +0.031 A 
ATOM     22  C   UNL     1     -12.297   2.001 -18.021  0.00  0.00    +0.023 A 
ATOM     23  C   UNL     1     -11.265   1.111 -17.713  0.00  0.00    +0.002 A 
ATOM     24  C   UNL     1     -10.350   1.431 -16.716  0.00  0.00    +0.000 A 
ATOM     25  C   UNL     1     -10.460   2.648 -16.047  0.00  0.00    +0.002 A 
ATOM     26  C   UNL     1     -11.490   3.543 -16.366  0.00  0.00    +0.023 A 
ENDBRANCH  19  21
ENDBRANCH  13  19
BRANCH   1  27
ATOM     27  O   UNL     1     -14.925   2.851 -15.677  0.00  0.00    -0.505 OA
ATOM     28  H   UNL     1     -15.556   2.277 -16.066  0.00  0.00    +0.292 HD
ENDBRANCH   1  27
BRANCH   8  29
ATOM     29  O   UNL     1     -16.493   7.830 -13.762  0.00  0.00    -0.506 OA
ATOM     30  H   UNL     1     -17.094   7.882 -13.045  0.00  0.00    +0.292 HD
ENDBRANCH   8  29
TORSDOF 6
ENDMDL
MODEL 4
REMARK VINA RESULT:      -7.6      1.815      2.177
REMARK  Name = min_compound994.pdb
REMARK  6 active torsions:
REMARK  status: ('A' for Active; 'I' for Inactive)
REMARK    1  A    between atoms: _1  and  _12
REMARK    2  A    between atoms: _2  and  _21
REMARK    3  A    between atoms: _8  and  _23
REMARK    4  A    between atoms: _9  and  _23
REMARK    5  A    between atoms: _10  and  _24
REMARK    6  A    between atoms: _24  and  _26
REMARK                            x       y       z     vdW  Elec       q    Type
REMARK                         _______ _______ _______ _____ _____    ______ ____
ROOT
ATOM      1  C   UNL     1     -12.914   2.971 -15.983  0.00  0.00    +0.134 A 
ATOM      2  C   UNL     1     -11.929   2.014 -16.417  0.00  0.00    +0.028 A 
ATOM      3  C   UNL     1     -10.935   1.542 -15.513  0.00  0.00    +0.012 A 
ATOM      4  C   UNL     1      -9.970   0.592 -15.850  0.00  0.00    +0.001 A 
ATOM      5  C   UNL     1      -9.960   0.073 -17.127  0.00  0.00    +0.001 A 
ATOM      6  C   UNL     1     -10.906   0.521 -18.048  0.00  0.00    +0.012 A 
ATOM      7  C   UNL     1     -11.904   1.490 -17.746  0.00  0.00    +0.028 A 
ATOM      8  C   UNL     1     -12.842   1.898 -18.750  0.00  0.00    +0.132 A 
ATOM      9  C   UNL     1     -13.832   2.847 -18.315  0.00  0.00    +0.029 A 
ATOM     10  C   UNL     1     -14.817   3.264 -19.244  0.00  0.00    +0.013 A 
ATOM     11  C   UNL     1     -15.885   4.093 -18.922  0.00  0.00    +0.017 A 
ATOM     12  C   UNL     1     -16.003   4.578 -17.630  0.00  0.00    +0.081 A 
ATOM     13  C   UNL     1     -14.991   4.308 -16.684  0.00  0.00    +0.057 A 
ATOM     14  C   UNL     1     -13.897   3.382 -16.978  0.00  0.00    +0.050 A 
ENDROOT
BRANCH  12  15
ATOM     15  C   UNL     1     -17.291   5.254 -17.307  0.00  0.00    +0.339 C 
ATOM     16  O   UNL     1     -18.378   4.692 -17.330  0.00  0.00    -0.245 OA
BRANCH  15  17
ATOM     17  O   UNL     1     -17.144   6.521 -16.852  0.00  0.00    -0.477 OA
ATOM     18  H   UNL     1     -16.414   6.546 -16.183  0.00  0.00    +0.295 HD
ENDBRANCH  15  17
ENDBRANCH  12  15
BRANCH  13  19
ATOM     19  N   UNL     1     -15.072   4.874 -15.352  0.00  0.00    -0.313 N 
ATOM     20  H   UNL     1     -15.399   5.858 -15.537  0.00  0.00    +0.152 HD
BRANCH  19  21
ATOM     21  C   UNL     1     -15.768   4.403 -14.203  0.00  0.00    +0.031 A 
ATOM     22  C   UNL     1     -15.484   5.035 -12.980  0.00  0.00    +0.023 A 
ATOM     23  C   UNL     1     -16.027   4.571 -11.780  0.00  0.00    +0.002 A 
ATOM     24  C   UNL     1     -16.857   3.455 -11.781  0.00  0.00    +0.000 A 
ATOM     25  C   UNL     1     -17.156   2.822 -12.986  0.00  0.00    +0.002 A 
ATOM     26  C   UNL     1     -16.619   3.297 -14.190  0.00  0.00    +0.023 A 
ENDBRANCH  19  21
ENDBRANCH  13  19
BRANCH   1  27
ATOM     27  O   UNL     1     -12.933   3.416 -14.765  0.00  0.00    -0.505 OA
ATOM     28  H   UNL     1     -13.055   2.821 -14.051  0.00  0.00    +0.292 HD
ENDBRANCH   1  27
BRANCH   8  29
ATOM     29  O   UNL     1     -12.808   1.429 -19.957  0.00  0.00    -0.506 OA
ATOM     30  H   UNL     1     -13.567   1.487 -20.503  0.00  0.00    +0.292 HD
ENDBRANCH   8  29
TORSDOF 6
ENDMDL
MODEL 5
REMARK VINA RESULT:      -7.3      6.794     10.722
REMARK  Name = min_compound994.pdb
REMARK  6 active torsions:
REMARK  status: ('A' for Active; 'I' for Inactive)
REMARK    1  A    between atoms: _1  and  _12
REMARK    2  A    between atoms: _2  and  _21
REMARK    3  A    between atoms: _8  and  _23
REMARK    4  A    between atoms: _9  and  _23
REMARK    5  A    between atoms: _10  and  _24
REMARK    6  A    between atoms: _24  and  _26
REMARK                            x       y       z     vdW  Elec       q    Type
REMARK                         _______ _______ _______ _____ _____    ______ ____
ROOT
ATOM      1  C   UNL     1     -16.280   2.601  -8.963  0.00  0.00    +0.134 A 
ATOM      2  C   UNL     1     -16.541   3.516 -10.042  0.00  0.00    +0.028 A 
ATOM      3  C   UNL     1     -15.463   4.129 -10.744  0.00  0.00    +0.012 A 
ATOM      4  C   UNL     1     -15.635   4.999 -11.821  0.00  0.00    +0.001 A 
ATOM      5  C   UNL     1     -16.914   5.299 -12.241  0.00  0.00    +0.001 A 
ATOM      6  C   UNL     1     -17.997   4.733 -11.570  0.00  0.00    +0.012 A 
ATOM      7  C   UNL     1     -17.865   3.844 -10.466  0.00  0.00    +0.028 A 
ATOM      8  C   UNL     1     -19.030   3.304  -9.830  0.00  0.00    +0.132 A 
ATOM      9  C   UNL     1     -18.772   2.381  -8.757  0.00  0.00    +0.029 A 
ATOM     10  C   UNL     1     -19.877   1.777  -8.110  0.00  0.00    +0.013 A 
ATOM     11  C   UNL     1     -19.762   0.795  -7.133  0.00  0.00    +0.017 A 
ATOM     12  C   UNL     1     -18.502   0.384  -6.728  0.00  0.00    +0.081 A 
ATOM     13  C   UNL     1     -17.356   1.032  -7.238  0.00  0.00    +0.057 A 
ATOM     14  C   UNL     1     -17.449   2.016  -8.317  0.00  0.00    +0.050 A 
ENDROOT
BRANCH  12  15
ATOM     15  C   UNL     1     -18.462  -0.828  -5.863  0.00  0.00    +0.339 C 
ATOM     16  O   UNL     1     -19.319  -1.098  -5.032  0.00  0.00    -0.245 OA
BRANCH  15  17
ATOM     17  O   UNL     1     -17.457  -1.683  -6.167  0.00  0.00    -0.477 OA
ATOM     18  H   UNL     1     -16.716  -1.560  -5.523  0.00  0.00    +0.295 HD
ENDBRANCH  15  17
ENDBRANCH  12  15
BRANCH  13  19
ATOM     19  N   UNL     1     -16.038   0.656  -6.764  0.00  0.00    -0.313 N 
ATOM     20  H   UNL     1     -15.425   0.860  -7.596  0.00  0.00    +0.152 HD
BRANCH  19  21
ATOM     21  C   UNL     1     -15.333   1.081  -5.603  0.00  0.00    +0.031 A 
ATOM     22  C   UNL     1     -15.806   2.234  -4.953  0.00  0.00    +0.023 A 
ATOM     23  C   UNL     1     -15.116   2.796  -3.877  0.00  0.00    +0.002 A 
ATOM     24  C   UNL     1     -13.930   2.217  -3.437  0.00  0.00    +0.000 A 
ATOM     25  C   UNL     1     -13.451   1.068  -4.064  0.00  0.00    +0.002 A 
ATOM     26  C   UNL     1     -14.152   0.501  -5.136  0.00  0.00    +0.023 A 
ENDBRANCH  19  21
ENDBRANCH  13  19
BRANCH   1  27
ATOM     27  O   UNL     1     -15.070   2.299  -8.610  0.00  0.00    -0.505 OA
ATOM     28  H   UNL     1     -14.344   2.756  -8.988  0.00  0.00    +0.292 HD
ENDBRANCH   1  27
BRANCH   8  29
ATOM     29  O   UNL     1     -20.230   3.614 -10.210  0.00  0.00    -0.506 OA
ATOM     30  H   UNL     1     -20.840   2.938 -10.433  0.00  0.00    +0.292 HD
ENDBRANCH   8  29
TORSDOF 6
ENDMDL
MODEL 6
REMARK VINA RESULT:      -7.2      6.388     10.064
REMARK  Name = min_compound994.pdb
REMARK  6 active torsions:
REMARK  status: ('A' for Active; 'I' for Inactive)
REMARK    1  A    between atoms: _1  and  _12
REMARK    2  A    between atoms: _2  and  _21
REMARK    3  A    between atoms: _8  and  _23
REMARK    4  A    between atoms: _9  and  _23
REMARK    5  A    between atoms: _10  and  _24
REMARK    6  A    between atoms: _24  and  _26
REMARK                            x       y       z     vdW  Elec       q    Type
REMARK                         _______ _______ _______ _____ _____    ______ ____
ROOT
ATOM      1  C   UNL     1     -16.178   1.904  -7.249  0.00  0.00    +0.134 A 
ATOM      2  C   UNL     1     -15.490   1.560  -6.033  0.00  0.00    +0.028 A 
ATOM      3  C   UNL     1     -14.501   0.536  -6.029  0.00  0.00    +0.012 A 
ATOM      4  C   UNL     1     -13.768   0.171  -4.898  0.00  0.00    +0.001 A 
ATOM      5  C   UNL     1     -14.006   0.823  -3.707  0.00  0.00    +0.001 A 
ATOM      6  C   UNL     1     -14.979   1.821  -3.664  0.00  0.00    +0.012 A 
ATOM      7  C   UNL     1     -15.750   2.221  -4.793  0.00  0.00    +0.028 A 
ATOM      8  C   UNL     1     -16.732   3.257  -4.666  0.00  0.00    +0.132 A 
ATOM      9  C   UNL     1     -17.414   3.608  -5.883  0.00  0.00    +0.029 A 
ATOM     10  C   UNL     1     -18.370   4.652  -5.840  0.00  0.00    +0.013 A 
ATOM     11  C   UNL     1     -19.020   5.155  -6.962  0.00  0.00    +0.017 A 
ATOM     12  C   UNL     1     -18.758   4.601  -8.204  0.00  0.00    +0.081 A 
ATOM     13  C   UNL     1     -17.913   3.475  -8.306  0.00  0.00    +0.057 A 
ATOM     14  C   UNL     1     -17.164   2.974  -7.153  0.00  0.00    +0.050 A 
ENDROOT
BRANCH  12  15
ATOM     15  C   UNL     1     -19.303   5.345  -9.374  0.00  0.00    +0.339 C 
ATOM     16  O   UNL     1     -18.919   6.458  -9.711  0.00  0.00    -0.245 OA
BRANCH  15  17
ATOM     17  O   UNL     1     -20.176   4.627 -10.120  0.00  0.00    -0.477 OA
ATOM     18  H   UNL     1     -20.746   4.082  -9.522  0.00  0.00    +0.295 HD
ENDBRANCH  15  17
ENDBRANCH  12  15
BRANCH  13  19
ATOM     19  N   UNL     1     -17.693   2.845  -9.593  0.00  0.00    -0.313 N 
ATOM     20  H   UNL     1     -18.674   2.683  -9.944  0.00  0.00    +0.152 HD
BRANCH  19  21
ATOM     21  C   UNL     1     -16.914   3.284 -10.700  0.00  0.00    +0.031 A 
ATOM     22  C   UNL     1     -15.820   4.121 -10.421  0.00  0.00    +0.023 A 
ATOM     23  C   UNL     1     -15.066   4.698 -11.445  0.00  0.00    +0.002 A 
ATOM     24  C   UNL     1     -15.402   4.454 -12.773  0.00  0.00    +0.000 A 
ATOM     25  C   UNL     1     -16.477   3.619 -13.068  0.00  0.00    +0.002 A 
ATOM     26  C   UNL     1     -17.225   3.034 -12.038  0.00  0.00    +0.023 A 
ENDBRANCH  19  21
ENDBRANCH  13  19
BRANCH   1  27
ATOM     27  O   UNL     1     -15.910   1.307  -8.369  0.00  0.00    -0.505 OA
ATOM     28  H   UNL     1     -16.606   0.961  -8.894  0.00  0.00    +0.292 HD
ENDBRANCH   1  27
BRANCH   8  29
ATOM     29  O   UNL     1     -16.972   3.845  -3.537  0.00  0.00    -0.506 OA
ATOM     30  H   UNL     1     -16.667   3.465  -2.737  0.00  0.00    +0.292 HD
ENDBRANCH   8  29
TORSDOF 6
ENDMDL
MODEL 7
REMARK VINA RESULT:      -7.0      6.186      9.881
REMARK  Name = min_compound994.pdb
REMARK  6 active torsions:
REMARK  status: ('A' for Active; 'I' for Inactive)
REMARK    1  A    between atoms: _1  and  _12
REMARK    2  A    between atoms: _2  and  _21
REMARK    3  A    between atoms: _8  and  _23
REMARK    4  A    between atoms: _9  and  _23
REMARK    5  A    between atoms: _10  and  _24
REMARK    6  A    between atoms: _24  and  _26
REMARK                            x       y       z     vdW  Elec       q    Type
REMARK                         _______ _______ _______ _____ _____    ______ ____
ROOT
ATOM      1  C   UNL     1     -15.679   1.843  -7.450  0.00  0.00    +0.134 A 
ATOM      2  C   UNL     1     -15.645   0.847  -6.411  0.00  0.00    +0.028 A 
ATOM      3  C   UNL     1     -14.556  -0.066  -6.323  0.00  0.00    +0.012 A 
ATOM      4  C   UNL     1     -14.436  -1.035  -5.326  0.00  0.00    +0.001 A 
ATOM      5  C   UNL     1     -15.422  -1.134  -4.367  0.00  0.00    +0.001 A 
ATOM      6  C   UNL     1     -16.514  -0.270  -4.427  0.00  0.00    +0.012 A 
ATOM      7  C   UNL     1     -16.675   0.730  -5.428  0.00  0.00    +0.028 A 
ATOM      8  C   UNL     1     -17.829   1.580  -5.420  0.00  0.00    +0.132 A 
ATOM      9  C   UNL     1     -17.859   2.583  -6.452  0.00  0.00    +0.029 A 
ATOM     10  C   UNL     1     -18.951   3.485  -6.480  0.00  0.00    +0.013 A 
ATOM     11  C   UNL     1     -19.047   4.559  -7.357  0.00  0.00    +0.017 A 
ATOM     12  C   UNL     1     -18.044   4.766  -8.290  0.00  0.00    +0.081 A 
ATOM     13  C   UNL     1     -16.989   3.835  -8.404  0.00  0.00    +0.057 A 
ATOM     14  C   UNL     1     -16.829   2.739  -7.448  0.00  0.00    +0.050 A 
ENDROOT
BRANCH  12  15
ATOM     15  C   UNL     1     -18.098   6.062  -9.023  0.00  0.00    +0.339 C 
ATOM     16  O   UNL     1     -19.090   6.467  -9.615  0.00  0.00    -0.245 OA
BRANCH  15  17
ATOM     17  O   UNL     1     -16.988   6.823  -8.871  0.00  0.00    -0.477 OA
ATOM     18  H   UNL     1     -16.199   6.320  -9.193  0.00  0.00    +0.295 HD
ENDBRANCH  15  17
ENDBRANCH  12  15
BRANCH  13  19
ATOM     19  N   UNL     1     -15.975   4.007  -9.427  0.00  0.00    -0.313 N 
ATOM     20  H   UNL     1     -15.183   3.410  -9.071  0.00  0.00    +0.152 HD
BRANCH  19  21
ATOM     21  C   UNL     1     -16.058   3.808 -10.833  0.00  0.00    +0.031 A 
ATOM     22  C   UNL     1     -15.145   4.516 -11.634  0.00  0.00    +0.023 A 
ATOM     23  C   UNL     1     -15.220   4.479 -13.028  0.00  0.00    +0.002 A 
ATOM     24  C   UNL     1     -16.221   3.738 -13.647  0.00  0.00    +0.000 A 
ATOM     25  C   UNL     1     -17.129   3.023 -12.869  0.00  0.00    +0.002 A 
ATOM     26  C   UNL     1     -17.044   3.053 -11.471  0.00  0.00    +0.023 A 
ENDBRANCH  19  21
ENDBRANCH  13  19
BRANCH   1  27
ATOM     27  O   UNL     1     -14.721   1.947  -8.318  0.00  0.00    -0.505 OA
ATOM     28  H   UNL     1     -14.905   2.255  -9.184  0.00  0.00    +0.292 HD
ENDBRANCH   1  27
BRANCH   8  29
ATOM     29  O   UNL     1     -18.767   1.463  -4.534  0.00  0.00    -0.506 OA
ATOM     30  H   UNL     1     -18.552   1.469  -3.622  0.00  0.00    +0.292 HD
ENDBRANCH   8  29
TORSDOF 6
ENDMDL
MODEL 8
REMARK VINA RESULT:      -6.9      6.576     10.127
REMARK  Name = min_compound994.pdb
REMARK  6 active torsions:
REMARK  status: ('A' for Active; 'I' for Inactive)
REMARK    1  A    between atoms: _1  and  _12
REMARK    2  A    between atoms: _2  and  _21
REMARK    3  A    between atoms: _8  and  _23
REMARK    4  A    between atoms: _9  and  _23
REMARK    5  A    between atoms: _10  and  _24
REMARK    6  A    between atoms: _24  and  _26
REMARK                            x       y       z     vdW  Elec       q    Type
REMARK                         _______ _______ _______ _____ _____    ______ ____
ROOT
ATOM      1  C   UNL     1     -16.911   3.161  -9.340  0.00  0.00    +0.134 A 
ATOM      2  C   UNL     1     -16.780   3.957 -10.532  0.00  0.00    +0.028 A 
ATOM      3  C   UNL     1     -16.566   3.334 -11.795  0.00  0.00    +0.012 A 
ATOM      4  C   UNL     1     -16.463   4.035 -12.998  0.00  0.00    +0.001 A 
ATOM      5  C   UNL     1     -16.565   5.410 -12.981  0.00  0.00    +0.001 A 
ATOM      6  C   UNL     1     -16.758   6.060 -11.763  0.00  0.00    +0.012 A 
ATOM      7  C   UNL     1     -16.865   5.383 -10.515  0.00  0.00    +0.028 A 
ATOM      8  C   UNL     1     -17.063   6.125  -9.305  0.00  0.00    +0.132 A 
ATOM      9  C   UNL     1     -17.204   5.330  -8.114  0.00  0.00    +0.029 A 
ATOM     10  C   UNL     1     -17.443   5.996  -6.886  0.00  0.00    +0.013 A 
ATOM     11  C   UNL     1     -17.699   5.342  -5.687  0.00  0.00    +0.017 A 
ATOM     12  C   UNL     1     -17.699   3.958  -5.654  0.00  0.00    +0.081 A 
ATOM     13  C   UNL     1     -17.344   3.229  -6.810  0.00  0.00    +0.057 A 
ATOM     14  C   UNL     1     -17.141   3.890  -8.099  0.00  0.00    +0.050 A 
ENDROOT
BRANCH  12  15
ATOM     15  C   UNL     1     -18.215   3.338  -4.402  0.00  0.00    +0.339 C 
ATOM     16  O   UNL     1     -18.999   2.398  -4.382  0.00  0.00    -0.245 OA
BRANCH  15  17
ATOM     17  O   UNL     1     -17.639   3.821  -3.275  0.00  0.00    -0.477 OA
ATOM     18  H   UNL     1     -17.464   3.074  -2.651  0.00  0.00    +0.295 HD
ENDBRANCH  15  17
ENDBRANCH  12  15
BRANCH  13  19
ATOM     19  N   UNL     1     -17.271   1.782  -6.763  0.00  0.00    -0.313 N 
ATOM     20  H   UNL     1     -17.537   1.503  -7.744  0.00  0.00    +0.152 HD
BRANCH  19  21
ATOM     21  C   UNL     1     -16.200   0.937  -6.357  0.00  0.00    +0.031 A 
ATOM     22  C   UNL     1     -15.152   1.535  -5.636  0.00  0.00    +0.023 A 
ATOM     23  C   UNL     1     -14.004   0.818  -5.293  0.00  0.00    +0.002 A 
ATOM     24  C   UNL     1     -13.879  -0.513  -5.679  0.00  0.00    +0.000 A 
ATOM     25  C   UNL     1     -14.912  -1.124  -6.386  0.00  0.00    +0.002 A 
ATOM     26  C   UNL     1     -16.067  -0.405  -6.718  0.00  0.00    +0.023 A 
ENDBRANCH  19  21
ENDBRANCH  13  19
BRANCH   1  27
ATOM     27  O   UNL     1     -16.854   1.866  -9.382  0.00  0.00    -0.505 OA
ATOM     28  H   UNL     1     -17.521   1.382  -9.829  0.00  0.00    +0.292 HD
ENDBRANCH   1  27
BRANCH   8  29
ATOM     29  O   UNL     1     -17.128   7.419  -9.292  0.00  0.00    -0.506 OA
ATOM     30  H   UNL     1     -17.681   7.854  -8.673  0.00  0.00    +0.292 HD
ENDBRANCH   8  29
TORSDOF 6
ENDMDL
MODEL 9
REMARK VINA RESULT:      -6.9      2.233      6.309
REMARK  Name = min_compound994.pdb
REMARK  6 active torsions:
REMARK  status: ('A' for Active; 'I' for Inactive)
REMARK    1  A    between atoms: _1  and  _12
REMARK    2  A    between atoms: _2  and  _21
REMARK    3  A    between atoms: _8  and  _23
REMARK    4  A    between atoms: _9  and  _23
REMARK    5  A    between atoms: _10  and  _24
REMARK    6  A    between atoms: _24  and  _26
REMARK                            x       y       z     vdW  Elec       q    Type
REMARK                         _______ _______ _______ _____ _____    ______ ____
ROOT
ATOM      1  C   UNL     1     -14.317   3.978 -14.995  0.00  0.00    +0.134 A 
ATOM      2  C   UNL     1     -15.285   4.370 -14.005  0.00  0.00    +0.028 A 
ATOM      3  C   UNL     1     -14.899   4.531 -12.644  0.00  0.00    +0.012 A 
ATOM      4  C   UNL     1     -15.771   4.942 -11.634  0.00  0.00    +0.001 A 
ATOM      5  C   UNL     1     -17.086   5.205 -11.953  0.00  0.00    +0.001 A 
ATOM      6  C   UNL     1     -17.509   5.043 -13.272  0.00  0.00    +0.012 A 
ATOM      7  C   UNL     1     -16.653   4.624 -14.329  0.00  0.00    +0.028 A 
ATOM      8  C   UNL     1     -17.165   4.482 -15.660  0.00  0.00    +0.132 A 
ATOM      9  C   UNL     1     -16.196   4.099 -16.653  0.00  0.00    +0.029 A 
ATOM     10  C   UNL     1     -16.625   3.979 -17.998  0.00  0.00    +0.013 A 
ATOM     11  C   UNL     1     -15.770   3.718 -19.063  0.00  0.00    +0.017 A 
ATOM     12  C   UNL     1     -14.420   3.531 -18.820  0.00  0.00    +0.081 A 
ATOM     13  C   UNL     1     -13.942   3.510 -17.492  0.00  0.00    +0.057 A 
ATOM     14  C   UNL     1     -14.806   3.852 -16.362  0.00  0.00    +0.050 A 
ENDROOT
BRANCH  12  15
ATOM     15  C   UNL     1     -13.543   3.497 -20.024  0.00  0.00    +0.339 C 
ATOM     16  O   UNL     1     -13.527   2.573 -20.828  0.00  0.00    -0.245 OA
BRANCH  15  17
ATOM     17  O   UNL     1     -12.852   4.644 -20.230  0.00  0.00    -0.477 OA
ATOM     18  H   UNL     1     -12.983   4.941 -21.165  0.00  0.00    +0.295 HD
ENDBRANCH  15  17
ENDBRANCH  12  15
BRANCH  13  19
ATOM     19  N   UNL     1     -12.542   3.242 -17.228  0.00  0.00    -0.313 N 
ATOM     20  H   UNL     1     -12.352   3.823 -16.369  0.00  0.00    +0.152 HD
BRANCH  19  21
ATOM     21  C   UNL     1     -11.869   1.999 -17.057  0.00  0.00    +0.031 A 
ATOM     22  C   UNL     1     -10.499   1.966 -17.369  0.00  0.00    +0.023 A 
ATOM     23  C   UNL     1      -9.777   0.771 -17.346  0.00  0.00    +0.002 A 
ATOM     24  C   UNL     1     -10.420  -0.419 -17.020  0.00  0.00    +0.000 A 
ATOM     25  C   UNL     1     -11.776  -0.403 -16.700  0.00  0.00    +0.002 A 
ATOM     26  C   UNL     1     -12.494   0.799 -16.713  0.00  0.00    +0.023 A 
ENDBRANCH  19  21
ENDBRANCH  13  19
BRANCH   1  27
ATOM     27  O   UNL     1     -13.074   3.775 -14.683  0.00  0.00    -0.505 OA
ATOM     28  H   UNL     1     -12.742   2.900 -14.624  0.00  0.00    +0.292 HD
ENDBRANCH   1  27
BRANCH   8  29
ATOM     29  O   UNL     1     -18.409   4.702 -15.948  0.00  0.00    -0.506 OA
ATOM     30  H   UNL     1     -18.651   5.475 -16.418  0.00  0.00    +0.292 HD
ENDBRANCH   8  29
TORSDOF 6
ENDMDL
