MODEL 1
REMARK VINA RESULT:      -7.6      0.000      0.000
REMARK  Name = min_compound949.pdb
REMARK  5 active torsions:
REMARK  status: ('A' for Active; 'I' for Inactive)
REMARK    1  A    between atoms: _1  and  _18
REMARK    2  A    between atoms: _2  and  _17
REMARK    3  A    between atoms: _3  and  _19
REMARK    4  A    between atoms: _10  and  _16
REMARK    5  A    between atoms: _16  and  _17
REMARK                            x       y       z     vdW  Elec       q    Type
REMARK                         _______ _______ _______ _____ _____    ______ ____
ROOT
ATOM      1  C   UNL     1     -12.909   6.394 -17.568  0.00  0.00    +0.049 A 
ATOM      2  C   UNL     1     -11.850   7.020 -18.450  0.00  0.00    +0.066 C 
ATOM      3  C   UNL     1     -12.782   4.929 -17.186  0.00  0.00    +0.035 A 
ATOM      4  C   UNL     1     -13.748   4.489 -16.354  0.00  0.00    +0.220 A 
ATOM      5  N   UNL     1     -14.776   5.346 -15.942  0.00  0.00    -0.182 N 
ATOM      6  N   UNL     1     -15.815   5.030 -15.120  0.00  0.00    -0.170 NA
ATOM      7  C   UNL     1     -16.520   6.161 -15.051  0.00  0.00    +0.137 A 
ATOM      8  C   UNL     1     -15.960   7.203 -15.807  0.00  0.00    +0.069 A 
ATOM      9  C   UNL     1     -14.830   6.661 -16.374  0.00  0.00    +0.159 A 
ATOM     10  N   UNL     1     -13.877   7.187 -17.191  0.00  0.00    -0.232 NA
ENDROOT
BRANCH   4  11
ATOM     11  O   UNL     1     -13.771   3.180 -15.887  0.00  0.00    -0.492 OA
ATOM     12  H   UNL     1     -13.090   3.146 -15.179  0.00  0.00    +0.294 HD
ENDBRANCH   4  11
BRANCH   3  13
ATOM     13  C   UNL     1     -11.669   4.049 -17.702  0.00  0.00    +0.047 C 
BRANCH  13  14
ATOM     14  C   UNL     1     -10.405   3.990 -16.723  0.00  0.00    +0.040 C 
BRANCH  14  15
ATOM     15  C   UNL     1     -10.527   1.970 -16.725  0.00  0.00    -0.047 A 
ATOM     16  C   UNL     1      -9.800   1.326 -17.731  0.00  0.00    +0.003 A 
ATOM     17  C   UNL     1      -9.316   0.054 -17.443  0.00  0.00    +0.000 A 
ATOM     18  C   UNL     1      -9.529  -0.516 -16.179  0.00  0.00    +0.000 A 
ATOM     19  C   UNL     1     -10.232   0.178 -15.183  0.00  0.00    +0.000 A 
ATOM     20  C   UNL     1     -10.722   1.453 -15.438  0.00  0.00    +0.003 A 
ENDBRANCH  14  15
ENDBRANCH  13  14
ENDBRANCH   3  13
TORSDOF 4
ENDMDL
MODEL 2
REMARK VINA RESULT:      -7.5      1.268      2.305
REMARK  Name = min_compound949.pdb
REMARK  5 active torsions:
REMARK  status: ('A' for Active; 'I' for Inactive)
REMARK    1  A    between atoms: _1  and  _18
REMARK    2  A    between atoms: _2  and  _17
REMARK    3  A    between atoms: _3  and  _19
REMARK    4  A    between atoms: _10  and  _16
REMARK    5  A    between atoms: _16  and  _17
REMARK                            x       y       z     vdW  Elec       q    Type
REMARK                         _______ _______ _______ _____ _____    ______ ____
ROOT
ATOM      1  C   UNL     1     -13.915   4.241 -16.521  0.00  0.00    +0.049 A 
ATOM      2  C   UNL     1     -13.986   2.755 -16.240  0.00  0.00    +0.066 C 
ATOM      3  C   UNL     1     -12.707   4.798 -17.254  0.00  0.00    +0.035 A 
ATOM      4  C   UNL     1     -12.772   6.123 -17.500  0.00  0.00    +0.220 A 
ATOM      5  N   UNL     1     -13.868   6.874 -17.059  0.00  0.00    -0.182 N 
ATOM      6  N   UNL     1     -14.054   8.213 -17.227  0.00  0.00    -0.170 NA
ATOM      7  C   UNL     1     -15.219   8.450 -16.620  0.00  0.00    +0.137 A 
ATOM      8  C   UNL     1     -15.793   7.295 -16.066  0.00  0.00    +0.069 A 
ATOM      9  C   UNL     1     -14.909   6.284 -16.362  0.00  0.00    +0.159 A 
ATOM     10  N   UNL     1     -14.931   4.948 -16.100  0.00  0.00    -0.232 NA
ENDROOT
BRANCH   4  11
ATOM     11  O   UNL     1     -11.762   6.791 -18.181  0.00  0.00    -0.492 OA
ATOM     12  H   UNL     1     -10.987   6.774 -17.577  0.00  0.00    +0.294 HD
ENDBRANCH   4  11
BRANCH   3  13
ATOM     13  C   UNL     1     -11.538   3.936 -17.664  0.00  0.00    +0.047 C 
BRANCH  13  14
ATOM     14  C   UNL     1     -10.395   3.849 -16.549  0.00  0.00    +0.040 C 
BRANCH  14  15
ATOM     15  C   UNL     1     -10.488   1.830 -16.643  0.00  0.00    -0.047 A 
ATOM     16  C   UNL     1      -9.772   1.244 -17.692  0.00  0.00    +0.003 A 
ATOM     17  C   UNL     1      -9.264  -0.032 -17.474  0.00  0.00    +0.000 A 
ATOM     18  C   UNL     1      -9.443  -0.664 -16.234  0.00  0.00    +0.000 A 
ATOM     19  C   UNL     1     -10.136  -0.028 -15.193  0.00  0.00    +0.000 A 
ATOM     20  C   UNL     1     -10.649   1.250 -15.378  0.00  0.00    +0.003 A 
ENDBRANCH  14  15
ENDBRANCH  13  14
ENDBRANCH   3  13
TORSDOF 4
ENDMDL
MODEL 3
REMARK VINA RESULT:      -7.2      3.088      6.461
REMARK  Name = min_compound949.pdb
REMARK  5 active torsions:
REMARK  status: ('A' for Active; 'I' for Inactive)
REMARK    1  A    between atoms: _1  and  _18
REMARK    2  A    between atoms: _2  and  _17
REMARK    3  A    between atoms: _3  and  _19
REMARK    4  A    between atoms: _10  and  _16
REMARK    5  A    between atoms: _16  and  _17
REMARK                            x       y       z     vdW  Elec       q    Type
REMARK                         _______ _______ _______ _____ _____    ______ ____
ROOT
ATOM      1  C   UNL     1     -12.328   2.221 -18.119  0.00  0.00    +0.049 A 
ATOM      2  C   UNL     1     -13.331   2.749 -19.122  0.00  0.00    +0.066 C 
ATOM      3  C   UNL     1     -11.831   3.141 -17.017  0.00  0.00    +0.035 A 
ATOM      4  C   UNL     1     -10.983   2.554 -16.147  0.00  0.00    +0.220 A 
ATOM      5  N   UNL     1     -10.603   1.218 -16.319  0.00  0.00    -0.182 N 
ATOM      6  N   UNL     1      -9.750   0.510 -15.527  0.00  0.00    -0.170 NA
ATOM      7  C   UNL     1      -9.696  -0.689 -16.112  0.00  0.00    +0.137 A 
ATOM      8  C   UNL     1     -10.498  -0.774 -17.262  0.00  0.00    +0.069 A 
ATOM      9  C   UNL     1     -11.080   0.466 -17.380  0.00  0.00    +0.159 A 
ATOM     10  N   UNL     1     -11.960   0.978 -18.282  0.00  0.00    -0.232 NA
ENDROOT
BRANCH   4  11
ATOM     11  O   UNL     1     -10.451   3.245 -15.066  0.00  0.00    -0.492 OA
ATOM     12  H   UNL     1     -10.590   4.196 -15.271  0.00  0.00    +0.294 HD
ENDBRANCH   4  11
BRANCH   3  13
ATOM     13  C   UNL     1     -12.251   4.588 -16.916  0.00  0.00    +0.047 C 
BRANCH  13  14
ATOM     14  C   UNL     1     -11.042   5.613 -17.126  0.00  0.00    +0.040 C 
BRANCH  14  15
ATOM     15  C   UNL     1     -12.163   6.622 -18.476  0.00  0.00    -0.047 A 
ATOM     16  C   UNL     1     -12.021   6.206 -19.803  0.00  0.00    +0.003 A 
ATOM     17  C   UNL     1     -13.128   6.355 -20.632  0.00  0.00    +0.000 A 
ATOM     18  C   UNL     1     -14.331   6.866 -20.123  0.00  0.00    +0.000 A 
ATOM     19  C   UNL     1     -14.444   7.238 -18.775  0.00  0.00    +0.000 A 
ATOM     20  C   UNL     1     -13.358   7.095 -17.921  0.00  0.00    +0.003 A 
ENDBRANCH  14  15
ENDBRANCH  13  14
ENDBRANCH   3  13
TORSDOF 4
ENDMDL
MODEL 4
REMARK VINA RESULT:      -7.2      3.288      6.413
REMARK  Name = min_compound949.pdb
REMARK  5 active torsions:
REMARK  status: ('A' for Active; 'I' for Inactive)
REMARK    1  A    between atoms: _1  and  _18
REMARK    2  A    between atoms: _2  and  _17
REMARK    3  A    between atoms: _3  and  _19
REMARK    4  A    between atoms: _10  and  _16
REMARK    5  A    between atoms: _16  and  _17
REMARK                            x       y       z     vdW  Elec       q    Type
REMARK                         _______ _______ _______ _____ _____    ______ ____
ROOT
ATOM      1  C   UNL     1     -12.336   1.923 -18.202  0.00  0.00    +0.049 A 
ATOM      2  C   UNL     1     -13.274   2.405 -19.289  0.00  0.00    +0.066 C 
ATOM      3  C   UNL     1     -12.193   2.744 -16.932  0.00  0.00    +0.035 A 
ATOM      4  C   UNL     1     -11.375   2.196 -16.010  0.00  0.00    +0.220 A 
ATOM      5  N   UNL     1     -10.715   0.990 -16.273  0.00  0.00    -0.182 N 
ATOM      6  N   UNL     1      -9.857   0.337 -15.440  0.00  0.00    -0.170 NA
ATOM      7  C   UNL     1      -9.484  -0.733 -16.146  0.00  0.00    +0.137 A 
ATOM      8  C   UNL     1     -10.083  -0.789 -17.414  0.00  0.00    +0.069 A 
ATOM      9  C   UNL     1     -10.879   0.330 -17.480  0.00  0.00    +0.159 A 
ATOM     10  N   UNL     1     -11.708   0.804 -18.449  0.00  0.00    -0.232 NA
ENDROOT
BRANCH   4  11
ATOM     11  O   UNL     1     -11.148   2.803 -14.781  0.00  0.00    -0.492 OA
ATOM     12  H   UNL     1     -12.020   3.166 -14.505  0.00  0.00    +0.294 HD
ENDBRANCH   4  11
BRANCH   3  13
ATOM     13  C   UNL     1     -12.904   4.061 -16.732  0.00  0.00    +0.047 C 
BRANCH  13  14
ATOM     14  C   UNL     1     -14.455   4.006 -17.115  0.00  0.00    +0.040 C 
BRANCH  14  15
ATOM     15  C   UNL     1     -14.884   3.483 -15.207  0.00  0.00    -0.047 A 
ATOM     16  C   UNL     1     -14.748   4.503 -14.260  0.00  0.00    +0.003 A 
ATOM     17  C   UNL     1     -15.580   4.446 -13.147  0.00  0.00    +0.000 A 
ATOM     18  C   UNL     1     -16.531   3.422 -13.025  0.00  0.00    +0.000 A 
ATOM     19  C   UNL     1     -16.662   2.437 -14.015  0.00  0.00    +0.000 A 
ATOM     20  C   UNL     1     -15.850   2.471 -15.142  0.00  0.00    +0.003 A 
ENDBRANCH  14  15
ENDBRANCH  13  14
ENDBRANCH   3  13
TORSDOF 4
ENDMDL
MODEL 5
REMARK VINA RESULT:      -7.1      3.161      6.456
REMARK  Name = min_compound949.pdb
REMARK  5 active torsions:
REMARK  status: ('A' for Active; 'I' for Inactive)
REMARK    1  A    between atoms: _1  and  _18
REMARK    2  A    between atoms: _2  and  _17
REMARK    3  A    between atoms: _3  and  _19
REMARK    4  A    between atoms: _10  and  _16
REMARK    5  A    between atoms: _16  and  _17
REMARK                            x       y       z     vdW  Elec       q    Type
REMARK                         _______ _______ _______ _____ _____    ______ ____
ROOT
ATOM      1  C   UNL     1     -10.803   3.235 -16.446  0.00  0.00    +0.049 A 
ATOM      2  C   UNL     1     -10.484   4.705 -16.281  0.00  0.00    +0.066 C 
ATOM      3  C   UNL     1     -12.197   2.738 -16.102  0.00  0.00    +0.035 A 
ATOM      4  C   UNL     1     -12.389   1.424 -16.338  0.00  0.00    +0.220 A 
ATOM      5  N   UNL     1     -11.343   0.629 -16.823  0.00  0.00    -0.182 N 
ATOM      6  N   UNL     1     -11.396  -0.705 -17.091  0.00  0.00    -0.170 NA
ATOM      7  C   UNL     1     -10.160  -0.995 -17.503  0.00  0.00    +0.137 A 
ATOM      8  C   UNL     1      -9.309   0.122 -17.511  0.00  0.00    +0.069 A 
ATOM      9  C   UNL     1     -10.090   1.165 -17.073  0.00  0.00    +0.159 A 
ATOM     10  N   UNL     1      -9.827   2.487 -16.887  0.00  0.00    -0.232 NA
ENDROOT
BRANCH   4  11
ATOM     11  O   UNL     1     -13.612   0.810 -16.101  0.00  0.00    -0.492 OA
ATOM     12  H   UNL     1     -13.998   1.286 -15.333  0.00  0.00    +0.294 HD
ENDBRANCH   4  11
BRANCH   3  13
ATOM     13  C   UNL     1     -13.266   3.644 -15.541  0.00  0.00    +0.047 C 
BRANCH  13  14
ATOM     14  C   UNL     1     -14.328   4.123 -16.637  0.00  0.00    +0.040 C 
BRANCH  14  15
ATOM     15  C   UNL     1     -15.776   4.071 -15.224  0.00  0.00    -0.047 A 
ATOM     16  C   UNL     1     -16.355   2.817 -15.004  0.00  0.00    +0.003 A 
ATOM     17  C   UNL     1     -16.828   2.557 -13.723  0.00  0.00    +0.000 A 
ATOM     18  C   UNL     1     -16.683   3.513 -12.706  0.00  0.00    +0.000 A 
ATOM     19  C   UNL     1     -16.063   4.746 -12.958  0.00  0.00    +0.000 A 
ATOM     20  C   UNL     1     -15.574   5.032 -14.226  0.00  0.00    +0.003 A 
ENDBRANCH  14  15
ENDBRANCH  13  14
ENDBRANCH   3  13
TORSDOF 4
ENDMDL
MODEL 6
REMARK VINA RESULT:      -7.1      2.802      6.710
REMARK  Name = min_compound949.pdb
REMARK  5 active torsions:
REMARK  status: ('A' for Active; 'I' for Inactive)
REMARK    1  A    between atoms: _1  and  _18
REMARK    2  A    between atoms: _2  and  _17
REMARK    3  A    between atoms: _3  and  _19
REMARK    4  A    between atoms: _10  and  _16
REMARK    5  A    between atoms: _16  and  _17
REMARK                            x       y       z     vdW  Elec       q    Type
REMARK                         _______ _______ _______ _____ _____    ______ ____
ROOT
ATOM      1  C   UNL     1     -11.011   3.219 -16.672  0.00  0.00    +0.049 A 
ATOM      2  C   UNL     1     -10.797   4.717 -16.613  0.00  0.00    +0.066 C 
ATOM      3  C   UNL     1     -12.371   2.651 -16.305  0.00  0.00    +0.035 A 
ATOM      4  C   UNL     1     -12.467   1.313 -16.445  0.00  0.00    +0.220 A 
ATOM      5  N   UNL     1     -11.362   0.561 -16.860  0.00  0.00    -0.182 N 
ATOM      6  N   UNL     1     -11.318  -0.789 -17.029  0.00  0.00    -0.170 NA
ATOM      7  C   UNL     1     -10.058  -1.021 -17.408  0.00  0.00    +0.137 A 
ATOM      8  C   UNL     1      -9.288   0.150 -17.490  0.00  0.00    +0.069 A 
ATOM      9  C   UNL     1     -10.146   1.165 -17.137  0.00  0.00    +0.159 A 
ATOM     10  N   UNL     1      -9.978   2.512 -17.048  0.00  0.00    -0.232 NA
ENDROOT
BRANCH   4  11
ATOM     11  O   UNL     1     -13.648   0.633 -16.174  0.00  0.00    -0.492 OA
ATOM     12  H   UNL     1     -13.377  -0.169 -15.673  0.00  0.00    +0.294 HD
ENDBRANCH   4  11
BRANCH   3  13
ATOM     13  C   UNL     1     -13.509   3.518 -15.822  0.00  0.00    +0.047 C 
BRANCH  13  14
ATOM     14  C   UNL     1     -14.564   3.873 -16.970  0.00  0.00    +0.040 C 
BRANCH  14  15
ATOM     15  C   UNL     1     -14.369   5.835 -16.511  0.00  0.00    -0.047 A 
ATOM     16  C   UNL     1     -13.796   6.630 -17.508  0.00  0.00    +0.003 A 
ATOM     17  C   UNL     1     -14.196   7.961 -17.560  0.00  0.00    +0.000 A 
ATOM     18  C   UNL     1     -15.160   8.447 -16.664  0.00  0.00    +0.000 A 
ATOM     19  C   UNL     1     -15.739   7.607 -15.701  0.00  0.00    +0.000 A 
ATOM     20  C   UNL     1     -15.366   6.271 -15.629  0.00  0.00    +0.003 A 
ENDBRANCH  14  15
ENDBRANCH  13  14
ENDBRANCH   3  13
TORSDOF 4
ENDMDL
MODEL 7
REMARK VINA RESULT:      -6.7     10.806     13.126
REMARK  Name = min_compound949.pdb
REMARK  5 active torsions:
REMARK  status: ('A' for Active; 'I' for Inactive)
REMARK    1  A    between atoms: _1  and  _18
REMARK    2  A    between atoms: _2  and  _17
REMARK    3  A    between atoms: _3  and  _19
REMARK    4  A    between atoms: _10  and  _16
REMARK    5  A    between atoms: _16  and  _17
REMARK                            x       y       z     vdW  Elec       q    Type
REMARK                         _______ _______ _______ _____ _____    ______ ____
ROOT
ATOM      1  C   UNL     1     -15.696   1.016  -4.471  0.00  0.00    +0.049 A 
ATOM      2  C   UNL     1     -16.100   2.455  -4.709  0.00  0.00    +0.066 C 
ATOM      3  C   UNL     1     -15.301   0.154  -5.658  0.00  0.00    +0.035 A 
ATOM      4  C   UNL     1     -14.907  -1.093  -5.327  0.00  0.00    +0.220 A 
ATOM      5  N   UNL     1     -14.918  -1.511  -3.991  0.00  0.00    -0.182 N 
ATOM      6  N   UNL     1     -14.561  -2.739  -3.523  0.00  0.00    -0.170 NA
ATOM      7  C   UNL     1     -14.764  -2.648  -2.207  0.00  0.00    +0.137 A 
ATOM      8  C   UNL     1     -15.242  -1.388  -1.812  0.00  0.00    +0.069 A 
ATOM      9  C   UNL     1     -15.333  -0.664  -2.977  0.00  0.00    +0.159 A 
ATOM     10  N   UNL     1     -15.717   0.618  -3.227  0.00  0.00    -0.232 NA
ENDROOT
BRANCH   4  11
ATOM     11  O   UNL     1     -14.490  -2.007  -6.288  0.00  0.00    -0.492 OA
ATOM     12  H   UNL     1     -14.285  -1.470  -7.085  0.00  0.00    +0.294 HD
ENDBRANCH   4  11
BRANCH   3  13
ATOM     13  C   UNL     1     -15.352   0.657  -7.080  0.00  0.00    +0.047 C 
BRANCH  13  14
ATOM     14  C   UNL     1     -16.468  -0.069  -7.967  0.00  0.00    +0.040 C 
BRANCH  14  15
ATOM     15  C   UNL     1     -17.260   1.740  -8.410  0.00  0.00    -0.047 A 
ATOM     16  C   UNL     1     -16.774   2.339  -9.576  0.00  0.00    +0.003 A 
ATOM     17  C   UNL     1     -17.644   3.176 -10.265  0.00  0.00    +0.000 A 
ATOM     18  C   UNL     1     -18.958   3.362  -9.810  0.00  0.00    +0.000 A 
ATOM     19  C   UNL     1     -19.420   2.714  -8.655  0.00  0.00    +0.000 A 
ATOM     20  C   UNL     1     -18.576   1.866  -7.948  0.00  0.00    +0.003 A 
ENDBRANCH  14  15
ENDBRANCH  13  14
ENDBRANCH   3  13
TORSDOF 4
ENDMDL
MODEL 8
REMARK VINA RESULT:      -6.6      2.976      6.772
REMARK  Name = min_compound949.pdb
REMARK  5 active torsions:
REMARK  status: ('A' for Active; 'I' for Inactive)
REMARK    1  A    between atoms: _1  and  _18
REMARK    2  A    between atoms: _2  and  _17
REMARK    3  A    between atoms: _3  and  _19
REMARK    4  A    between atoms: _10  and  _16
REMARK    5  A    between atoms: _16  and  _17
REMARK                            x       y       z     vdW  Elec       q    Type
REMARK                         _______ _______ _______ _____ _____    ______ ____
ROOT
ATOM      1  C   UNL     1     -10.992   3.469 -16.648  0.00  0.00    +0.049 A 
ATOM      2  C   UNL     1     -10.774   4.925 -16.296  0.00  0.00    +0.066 C 
ATOM      3  C   UNL     1     -11.958   3.116 -17.767  0.00  0.00    +0.035 A 
ATOM      4  C   UNL     1     -12.035   1.796 -18.033  0.00  0.00    +0.220 A 
ATOM      5  N   UNL     1     -11.292   0.875 -17.285  0.00  0.00    -0.182 N 
ATOM      6  N   UNL     1     -11.286  -0.478 -17.439  0.00  0.00    -0.170 NA
ATOM      7  C   UNL     1     -10.449  -0.902 -16.489  0.00  0.00    +0.137 A 
ATOM      8  C   UNL     1      -9.911   0.147 -15.726  0.00  0.00    +0.069 A 
ATOM      9  C   UNL     1     -10.463   1.289 -16.255  0.00  0.00    +0.159 A 
ATOM     10  N   UNL     1     -10.310   2.605 -15.944  0.00  0.00    -0.232 NA
ENDROOT
BRANCH   4  11
ATOM     11  O   UNL     1     -12.853   1.300 -19.041  0.00  0.00    -0.492 OA
ATOM     12  H   UNL     1     -13.384   0.589 -18.618  0.00  0.00    +0.294 HD
ENDBRANCH   4  11
BRANCH   3  13
ATOM     13  C   UNL     1     -12.761   4.159 -18.505  0.00  0.00    +0.047 C 
BRANCH  13  14
ATOM     14  C   UNL     1     -14.312   4.156 -18.115  0.00  0.00    +0.040 C 
BRANCH  14  15
ATOM     15  C   UNL     1     -14.332   6.174 -18.273  0.00  0.00    -0.047 A 
ATOM     16  C   UNL     1     -15.166   6.689 -19.270  0.00  0.00    +0.003 A 
ATOM     17  C   UNL     1     -15.718   7.945 -19.044  0.00  0.00    +0.000 A 
ATOM     18  C   UNL     1     -15.463   8.625 -17.843  0.00  0.00    +0.000 A 
ATOM     19  C   UNL     1     -14.650   8.058 -16.850  0.00  0.00    +0.000 A 
ATOM     20  C   UNL     1     -14.090   6.801 -17.045  0.00  0.00    +0.003 A 
ENDBRANCH  14  15
ENDBRANCH  13  14
ENDBRANCH   3  13
TORSDOF 4
ENDMDL
MODEL 9
REMARK VINA RESULT:      -6.6      3.744      4.290
REMARK  Name = min_compound949.pdb
REMARK  5 active torsions:
REMARK  status: ('A' for Active; 'I' for Inactive)
REMARK    1  A    between atoms: _1  and  _18
REMARK    2  A    between atoms: _2  and  _17
REMARK    3  A    between atoms: _3  and  _19
REMARK    4  A    between atoms: _10  and  _16
REMARK    5  A    between atoms: _16  and  _17
REMARK                            x       y       z     vdW  Elec       q    Type
REMARK                         _______ _______ _______ _____ _____    ______ ____
ROOT
ATOM      1  C   UNL     1     -14.765   4.705 -18.985  0.00  0.00    +0.049 A 
ATOM      2  C   UNL     1     -14.804   5.749 -17.890  0.00  0.00    +0.066 C 
ATOM      3  C   UNL     1     -13.761   3.569 -18.888  0.00  0.00    +0.035 A 
ATOM      4  C   UNL     1     -13.849   2.667 -19.887  0.00  0.00    +0.220 A 
ATOM      5  N   UNL     1     -14.782   2.836 -20.917  0.00  0.00    -0.182 N 
ATOM      6  N   UNL     1     -14.968   2.013 -21.986  0.00  0.00    -0.170 NA
ATOM      7  C   UNL     1     -15.941   2.608 -22.680  0.00  0.00    +0.137 A 
ATOM      8  C   UNL     1     -16.391   3.796 -22.082  0.00  0.00    +0.069 A 
ATOM      9  C   UNL     1     -15.635   3.928 -20.941  0.00  0.00    +0.159 A 
ATOM     10  N   UNL     1     -15.627   4.865 -19.955  0.00  0.00    -0.232 NA
ENDROOT
BRANCH   4  11
ATOM     11  O   UNL     1     -13.021   1.553 -19.941  0.00  0.00    -0.492 OA
ATOM     12  H   UNL     1     -12.143   1.866 -19.628  0.00  0.00    +0.294 HD
ENDBRANCH   4  11
BRANCH   3  13
ATOM     13  C   UNL     1     -12.752   3.471 -17.769  0.00  0.00    +0.047 C 
BRANCH  13  14
ATOM     14  C   UNL     1     -13.303   2.689 -16.488  0.00  0.00    +0.040 C 
BRANCH  14  15
ATOM     15  C   UNL     1     -11.736   1.416 -16.620  0.00  0.00    -0.047 A 
ATOM     16  C   UNL     1     -10.647   1.717 -15.796  0.00  0.00    +0.003 A 
ATOM     17  C   UNL     1      -9.877   0.647 -15.351  0.00  0.00    +0.000 A 
ATOM     18  C   UNL     1     -10.225  -0.667 -15.697  0.00  0.00    +0.000 A 
ATOM     19  C   UNL     1     -11.347  -0.932 -16.495  0.00  0.00    +0.000 A 
ATOM     20  C   UNL     1     -12.139   0.116 -16.950  0.00  0.00    +0.003 A 
ENDBRANCH  14  15
ENDBRANCH  13  14
ENDBRANCH   3  13
TORSDOF 4
ENDMDL
