MODEL 1
REMARK VINA RESULT:     -12.3      0.000      0.000
REMARK  13 active torsions:
REMARK  status: ('A' for Active; 'I' for Inactive)
REMARK    1  A    between atoms: C13_3  and  N_18 
REMARK    2  A    between atoms: C13_3  and  C4_37 
REMARK    3  A    between atoms: C20_9  and  O6_59 
REMARK    4  A    between atoms: C21_25  and  C24_12 
REMARK       I    between atoms: C24_12  and  N2_49 
REMARK    5  A    between atoms: C25_13  and  S_60 
REMARK    6  A    between atoms: C28_15  and  N3_50 
REMARK    7  A    between atoms: C31_17  and  C32_29 
REMARK    8  A    between atoms: C31_17  and  N3_50 
REMARK    9  A    between atoms: C18_23  and  N1_48 
REMARK   10  A    between atoms: C27_26  and  N4_51 
REMARK   11  A    between atoms: C37_34  and  O6_59 
REMARK   12  A    between atoms: C5_43  and  C7_45 
REMARK   13  A    between atoms: N2_49  and  S_60 
ROOT
HETATM    1  C19 LBM A   1     -17.274   3.024 -10.627  1.00  0.00     0.067 A 
HETATM    2  C20 LBM A   1     -17.719   3.202  -9.339  1.00  0.00     0.094 A 
HETATM    3  C22 LBM A   1     -17.001   5.472  -9.380  1.00  0.00     0.022 A 
HETATM    4  C23 LBM A   1     -16.566   5.303 -10.681  1.00  0.00     0.030 A 
HETATM    5  C18 LBM A   1     -16.706   4.068 -11.331  1.00  0.00     0.033 A 
HETATM    6  C21 LBM A   1     -17.607   4.423  -8.674  1.00  0.00     0.067 A 
ENDROOT
BRANCH   6   7
HETATM    7  C24 LBM A   1     -18.069   4.649  -7.265  1.00  0.00     0.268 C 
HETATM    8  O   LBM A   1     -19.213   4.371  -6.887  1.00  0.00    -0.267 OA
HETATM    9  N2  LBM A   1     -17.142   5.161  -6.378  1.00  0.00    -0.246 N 
HETATM   10  HN2 LBM A   1     -16.279   5.547  -6.731  1.00  0.00     0.182 HD
BRANCH   9  11
HETATM   11  S   LBM A   1     -17.413   5.153  -4.795  1.00  0.00     0.265 S 
HETATM   12  O1  LBM A   1     -18.828   5.320  -4.536  1.00  0.00    -0.200 OA
HETATM   13  O2  LBM A   1     -16.500   6.100  -4.236  1.00  0.00    -0.200 OA
BRANCH  11  14
HETATM   14  C25 LBM A   1     -16.936   3.514  -4.272  1.00  0.00     0.082 A 
HETATM   15  C26 LBM A   1     -15.593   3.284  -3.969  1.00  0.00     0.063 A 
HETATM   16  C27 LBM A   1     -15.195   2.012  -3.603  1.00  0.00     0.130 A 
HETATM   17  C28 LBM A   1     -16.097   0.918  -3.511  1.00  0.00     0.061 A 
HETATM   18  C29 LBM A   1     -17.437   1.196  -3.848  1.00  0.00     0.033 A 
HETATM   19  C30 LBM A   1     -17.855   2.483  -4.201  1.00  0.00     0.028 A 
BRANCH  16  20
HETATM   20  N4  LBM A   1     -13.765   1.854  -3.367  1.00  0.00    -0.113 N 
HETATM   21  O4  LBM A   1     -13.327   0.762  -3.057  1.00  0.00    -0.532 OA
HETATM   22  O5  LBM A   1     -13.057   2.852  -3.462  1.00  0.00    -0.532 OA
ENDBRANCH  16  20
BRANCH  17  23
HETATM   23  N3  LBM A   1     -15.673  -0.330  -3.092  1.00  0.00    -0.388 N 
HETATM   24  HN3 LBM A   1     -14.719  -0.419  -2.774  1.00  0.00     0.159 HD
BRANCH  23  25
HETATM   25  C31 LBM A   1     -16.507  -1.526  -3.075  1.00  0.00     0.124 C 
BRANCH  25  26
HETATM   26  C32 LBM A   1     -15.655  -2.751  -2.780  1.00  0.00     0.007 C 
HETATM   27  C33 LBM A   1     -14.464  -2.398  -1.897  1.00  0.00     0.032 C 
HETATM   28  C34 LBM A   1     -13.660  -3.644  -1.595  1.00  0.00     0.168 C 
HETATM   29  O3  LBM A   1     -14.457  -4.625  -0.939  1.00  0.00    -0.391 OA
HETATM   30  C35 LBM A   1     -15.529  -5.028  -1.795  1.00  0.00     0.168 C 
HETATM   31  C36 LBM A   1     -16.436  -3.862  -2.108  1.00  0.00     0.032 C 
ENDBRANCH  25  26
ENDBRANCH  23  25
ENDBRANCH  17  23
ENDBRANCH  11  14
ENDBRANCH   9  11
ENDBRANCH   6   7
BRANCH   2  32
HETATM   32  O6  LBM A   1     -18.258   2.127  -8.656  1.00  0.00    -0.308 OA
BRANCH  32  33
HETATM   33  C37 LBM A   1     -17.446   1.203  -8.030  1.00  0.00     0.094 A 
HETATM   34  C38 LBM A   1     -17.941  -0.046  -7.714  1.00  0.00     0.156 A 
HETATM   35  N5  LBM A   1     -17.208  -1.013  -7.146  1.00  0.00    -0.240 NA
HETATM   36  C39 LBM A   1     -15.934  -0.677  -6.816  1.00  0.00     0.137 A 
HETATM   37  C40 LBM A   1     -15.355   0.585  -7.068  1.00  0.00     0.014 A 
HETATM   38  N6  LBM A   1     -14.985  -1.500  -6.282  1.00  0.00    -0.350 N 
HETATM   39  C41 LBM A   1     -16.127   1.542  -7.718  1.00  0.00     0.054 A 
HETATM   40  C42 LBM A   1     -13.967   0.484  -6.630  1.00  0.00     0.032 A 
HETATM   41  C43 LBM A   1     -13.798  -0.787  -6.175  1.00  0.00     0.090 A 
HETATM   42  HN6 LBM A   1     -15.124  -2.462  -6.011  1.00  0.00     0.166 HD
ENDBRANCH  32  33
ENDBRANCH   2  32
BRANCH   5  43
HETATM   43  N1  LBM A   1     -16.246   3.874 -12.621  1.00  0.00    -0.377 N 
HETATM   44  C15 LBM A   1     -15.487   4.899 -13.353  1.00  0.00     0.153 C 
HETATM   45  C14 LBM A   1     -14.697   4.261 -14.503  1.00  0.00     0.292 C 
HETATM   46  N   LBM A   1     -15.576   3.500 -15.420  1.00  0.00     0.095 N 
HETATM   47  C17 LBM A   1     -16.277   2.462 -14.628  1.00  0.00     0.292 C 
HETATM   48  C16 LBM A   1     -17.102   3.103 -13.526  1.00  0.00     0.153 C 
BRANCH  46  49
HETATM   49  C13 LBM A   1     -14.803   2.874 -16.509  1.00  0.00     0.307 C 
BRANCH  49  50
HETATM   50  C4  LBM A   1     -14.045   3.840 -17.380  1.00  0.00    -0.045 C 
HETATM   51  C3  LBM A   1     -14.838   4.927 -18.061  1.00  0.00     0.037 C 
HETATM   52  C2  LBM A   1     -14.052   5.458 -19.250  1.00  0.00     0.013 C 
HETATM   53  C1  LBM A   1     -12.625   5.855 -18.857  1.00  0.00    -0.043 C 
HETATM   54  C   LBM A   1     -11.910   6.484 -20.052  1.00  0.00     0.015 C 
HETATM   55  C44 LBM A   1     -12.656   6.854 -17.705  1.00  0.00     0.015 C 
HETATM   56  C6  LBM A   1     -11.877   4.592 -18.421  1.00  0.00     0.048 C 
HETATM   57  C5  LBM A   1     -12.706   3.642 -17.614  1.00  0.00    -0.043 C 
BRANCH  57  58
HETATM   58  C7  LBM A   1     -11.959   2.460 -17.138  1.00  0.00    -0.029 A 
HETATM   59  C12 LBM A   1     -12.004   1.266 -17.856  1.00  0.00     0.013 A 
HETATM   60  C11 LBM A   1     -11.252   0.186 -17.453  1.00  0.00     0.024 A 
HETATM   61  C10 LBM A   1     -10.479   0.264 -16.302  1.00  0.00     0.034 A 
HETATM   62  C9  LBM A   1     -10.458   1.434 -15.559  1.00  0.00     0.024 A 
HETATM   63 CL   LBM A   1      -9.594  -1.120 -15.762  1.00  0.00    -0.084 Cl
HETATM   64  C8  LBM A   1     -11.189   2.521 -15.978  1.00  0.00     0.013 A 
ENDBRANCH  57  58
ENDBRANCH  49  50
ENDBRANCH  46  49
ENDBRANCH   5  43
TORSDOF 13
ENDMDL
MODEL 2
REMARK VINA RESULT:     -11.9      1.132      1.684
REMARK  13 active torsions:
REMARK  status: ('A' for Active; 'I' for Inactive)
REMARK    1  A    between atoms: C13_3  and  N_18 
REMARK    2  A    between atoms: C13_3  and  C4_37 
REMARK    3  A    between atoms: C20_9  and  O6_59 
REMARK    4  A    between atoms: C21_25  and  C24_12 
REMARK       I    between atoms: C24_12  and  N2_49 
REMARK    5  A    between atoms: C25_13  and  S_60 
REMARK    6  A    between atoms: C28_15  and  N3_50 
REMARK    7  A    between atoms: C31_17  and  C32_29 
REMARK    8  A    between atoms: C31_17  and  N3_50 
REMARK    9  A    between atoms: C18_23  and  N1_48 
REMARK   10  A    between atoms: C27_26  and  N4_51 
REMARK   11  A    between atoms: C37_34  and  O6_59 
REMARK   12  A    between atoms: C5_43  and  C7_45 
REMARK   13  A    between atoms: N2_49  and  S_60 
ROOT
HETATM    1  C19 LBM A   1     -17.247   3.011 -10.643  1.00  0.00     0.067 A 
HETATM    2  C20 LBM A   1     -17.676   3.176  -9.348  1.00  0.00     0.094 A 
HETATM    3  C22 LBM A   1     -16.977   5.452  -9.382  1.00  0.00     0.022 A 
HETATM    4  C23 LBM A   1     -16.558   5.295 -10.690  1.00  0.00     0.030 A 
HETATM    5  C18 LBM A   1     -16.696   4.064 -11.347  1.00  0.00     0.033 A 
HETATM    6  C21 LBM A   1     -17.565   4.393  -8.676  1.00  0.00     0.067 A 
ENDROOT
BRANCH   6   7
HETATM    7  C24 LBM A   1     -18.010   4.606  -7.259  1.00  0.00     0.268 C 
HETATM    8  O   LBM A   1     -19.165   4.375  -6.883  1.00  0.00    -0.267 OA
HETATM    9  N2  LBM A   1     -17.055   5.048  -6.364  1.00  0.00    -0.246 N 
HETATM   10  HN2 LBM A   1     -16.175   5.399  -6.712  1.00  0.00     0.182 HD
BRANCH   9  11
HETATM   11  S   LBM A   1     -17.320   5.013  -4.781  1.00  0.00     0.265 S 
HETATM   12  O1  LBM A   1     -18.738   5.143  -4.514  1.00  0.00    -0.200 OA
HETATM   13  O2  LBM A   1     -16.428   5.974  -4.212  1.00  0.00    -0.200 OA
BRANCH  11  14
HETATM   14  C25 LBM A   1     -16.802   3.379  -4.281  1.00  0.00     0.082 A 
HETATM   15  C26 LBM A   1     -17.777   2.390  -4.152  1.00  0.00     0.063 A 
HETATM   16  C27 LBM A   1     -17.404   1.130  -3.724  1.00  0.00     0.130 A 
HETATM   17  C28 LBM A   1     -16.060   0.786  -3.415  1.00  0.00     0.061 A 
HETATM   18  C29 LBM A   1     -15.117   1.826  -3.539  1.00  0.00     0.033 A 
HETATM   19  C30 LBM A   1     -15.480   3.099  -3.989  1.00  0.00     0.028 A 
BRANCH  16  20
HETATM   20  N4  LBM A   1     -18.499   0.180  -3.560  1.00  0.00    -0.113 N 
HETATM   21  O4  LBM A   1     -18.828  -0.166  -2.442  1.00  0.00    -0.532 OA
HETATM   22  O5  LBM A   1     -19.030  -0.260  -4.577  1.00  0.00    -0.532 OA
ENDBRANCH  16  20
BRANCH  17  23
HETATM   23  N3  LBM A   1     -15.714  -0.499  -3.039  1.00  0.00    -0.388 N 
HETATM   24  HN3 LBM A   1     -16.423  -1.215  -3.108  1.00  0.00     0.159 HD
BRANCH  23  25
HETATM   25  C31 LBM A   1     -14.399  -0.894  -2.550  1.00  0.00     0.124 C 
BRANCH  25  26
HETATM   26  C32 LBM A   1     -14.492  -2.226  -1.820  1.00  0.00     0.007 C 
HETATM   27  C33 LBM A   1     -15.543  -2.180  -0.717  1.00  0.00     0.032 C 
HETATM   28  C34 LBM A   1     -15.635  -3.529  -0.038  1.00  0.00     0.168 C 
HETATM   29  O3  LBM A   1     -15.973  -4.553  -0.967  1.00  0.00    -0.391 OA
HETATM   30  C35 LBM A   1     -14.948  -4.663  -1.959  1.00  0.00     0.168 C 
HETATM   31  C36 LBM A   1     -14.819  -3.381  -2.745  1.00  0.00     0.032 C 
ENDBRANCH  25  26
ENDBRANCH  23  25
ENDBRANCH  17  23
ENDBRANCH  11  14
ENDBRANCH   9  11
ENDBRANCH   6   7
BRANCH   2  32
HETATM   32  O6  LBM A   1     -18.198   2.092  -8.666  1.00  0.00    -0.308 OA
BRANCH  32  33
HETATM   33  C37 LBM A   1     -17.371   1.179  -8.045  1.00  0.00     0.094 A 
HETATM   34  C38 LBM A   1     -17.812  -0.111  -7.825  1.00  0.00     0.156 A 
HETATM   35  N5  LBM A   1     -17.058  -1.069  -7.268  1.00  0.00    -0.240 NA
HETATM   36  C39 LBM A   1     -15.825  -0.684  -6.847  1.00  0.00     0.137 A 
HETATM   37  C40 LBM A   1     -15.305   0.618  -6.997  1.00  0.00     0.014 A 
HETATM   38  N6  LBM A   1     -14.863  -1.485  -6.303  1.00  0.00    -0.350 N 
HETATM   39  C41 LBM A   1     -16.092   1.569  -7.638  1.00  0.00     0.054 A 
HETATM   40  C42 LBM A   1     -13.940   0.567  -6.484  1.00  0.00     0.032 A 
HETATM   41  C43 LBM A   1     -13.725  -0.717  -6.089  1.00  0.00     0.090 A 
HETATM   42  HN6 LBM A   1     -14.961  -2.467  -6.093  1.00  0.00     0.166 HD
ENDBRANCH  32  33
ENDBRANCH   2  32
BRANCH   5  43
HETATM   43  N1  LBM A   1     -16.252   3.883 -12.645  1.00  0.00    -0.377 N 
HETATM   44  C15 LBM A   1     -15.509   4.918 -13.379  1.00  0.00     0.153 C 
HETATM   45  C14 LBM A   1     -14.730   4.294 -14.543  1.00  0.00     0.292 C 
HETATM   46  N   LBM A   1     -15.617   3.535 -15.454  1.00  0.00     0.095 N 
HETATM   47  C17 LBM A   1     -16.301   2.486 -14.661  1.00  0.00     0.292 C 
HETATM   48  C16 LBM A   1     -17.115   3.114 -13.544  1.00  0.00     0.153 C 
BRANCH  46  49
HETATM   49  C13 LBM A   1     -14.854   2.922 -16.559  1.00  0.00     0.307 C 
BRANCH  49  50
HETATM   50  C4  LBM A   1     -14.116   3.900 -17.433  1.00  0.00    -0.045 C 
HETATM   51  C3  LBM A   1     -14.930   4.970 -18.116  1.00  0.00     0.037 C 
HETATM   52  C2  LBM A   1     -14.156   5.512 -19.308  1.00  0.00     0.013 C 
HETATM   53  C1  LBM A   1     -12.736   5.937 -18.919  1.00  0.00    -0.043 C 
HETATM   54  C   LBM A   1     -12.036   6.576 -20.117  1.00  0.00     0.015 C 
HETATM   55  C44 LBM A   1     -12.785   6.938 -17.769  1.00  0.00     0.015 C 
HETATM   56  C6  LBM A   1     -11.965   4.690 -18.481  1.00  0.00     0.048 C 
HETATM   57  C5  LBM A   1     -12.774   3.726 -17.670  1.00  0.00    -0.043 C 
BRANCH  57  58
HETATM   58  C7  LBM A   1     -12.004   2.560 -17.191  1.00  0.00    -0.029 A 
HETATM   59  C12 LBM A   1     -11.253   2.649 -16.020  1.00  0.00     0.013 A 
HETATM   60  C11 LBM A   1     -10.594   1.542 -15.534  1.00  0.00     0.024 A 
HETATM   61  C10 LBM A   1     -10.633   0.343 -16.233  1.00  0.00     0.034 A 
HETATM   62  C9  LBM A   1     -11.345   0.255 -17.420  1.00  0.00     0.024 A 
HETATM   63 CL   LBM A   1      -9.743  -1.022 -15.656  1.00  0.00    -0.084 Cl
HETATM   64  C8  LBM A   1     -12.026   1.354 -17.889  1.00  0.00     0.013 A 
ENDBRANCH  57  58
ENDBRANCH  49  50
ENDBRANCH  46  49
ENDBRANCH   5  43
TORSDOF 13
ENDMDL
MODEL 3
REMARK VINA RESULT:     -10.1      2.089      4.081
REMARK  13 active torsions:
REMARK  status: ('A' for Active; 'I' for Inactive)
REMARK    1  A    between atoms: C13_3  and  N_18 
REMARK    2  A    between atoms: C13_3  and  C4_37 
REMARK    3  A    between atoms: C20_9  and  O6_59 
REMARK    4  A    between atoms: C21_25  and  C24_12 
REMARK       I    between atoms: C24_12  and  N2_49 
REMARK    5  A    between atoms: C25_13  and  S_60 
REMARK    6  A    between atoms: C28_15  and  N3_50 
REMARK    7  A    between atoms: C31_17  and  C32_29 
REMARK    8  A    between atoms: C31_17  and  N3_50 
REMARK    9  A    between atoms: C18_23  and  N1_48 
REMARK   10  A    between atoms: C27_26  and  N4_51 
REMARK   11  A    between atoms: C37_34  and  O6_59 
REMARK   12  A    between atoms: C5_43  and  C7_45 
REMARK   13  A    between atoms: N2_49  and  S_60 
ROOT
HETATM    1  C19 LBM A   1     -16.983   5.038 -10.395  1.00  0.00     0.067 A 
HETATM    2  C20 LBM A   1     -17.391   5.165  -9.090  1.00  0.00     0.094 A 
HETATM    3  C22 LBM A   1     -17.140   2.820  -8.760  1.00  0.00     0.022 A 
HETATM    4  C23 LBM A   1     -16.714   2.690 -10.068  1.00  0.00     0.030 A 
HETATM    5  C18 LBM A   1     -16.620   3.809 -10.909  1.00  0.00     0.033 A 
HETATM    6  C21 LBM A   1     -17.478   4.072  -8.227  1.00  0.00     0.067 A 
ENDROOT
BRANCH   6   7
HETATM    7  C24 LBM A   1     -17.932   4.171  -6.800  1.00  0.00     0.268 C 
HETATM    8  O   LBM A   1     -18.973   3.641  -6.395  1.00  0.00    -0.267 OA
HETATM    9  N2  LBM A   1     -17.113   4.865  -5.931  1.00  0.00    -0.246 N 
HETATM   10  HN2 LBM A   1     -16.369   5.438  -6.302  1.00  0.00     0.182 HD
BRANCH   9  11
HETATM   11  S   LBM A   1     -17.323   4.777  -4.342  1.00  0.00     0.265 S 
HETATM   12  O1  LBM A   1     -18.720   4.982  -4.016  1.00  0.00    -0.200 OA
HETATM   13  O2  LBM A   1     -16.353   5.656  -3.768  1.00  0.00    -0.200 OA
BRANCH  11  14
HETATM   14  C25 LBM A   1     -16.892   3.094  -3.931  1.00  0.00     0.082 A 
HETATM   15  C26 LBM A   1     -15.558   2.706  -4.055  1.00  0.00     0.063 A 
HETATM   16  C27 LBM A   1     -15.210   1.397  -3.783  1.00  0.00     0.130 A 
HETATM   17  C28 LBM A   1     -16.153   0.418  -3.370  1.00  0.00     0.061 A 
HETATM   18  C29 LBM A   1     -17.490   0.853  -3.280  1.00  0.00     0.033 A 
HETATM   19  C30 LBM A   1     -17.851   2.180  -3.535  1.00  0.00     0.028 A 
BRANCH  16  20
HETATM   20  N4  LBM A   1     -13.805   1.070  -4.001  1.00  0.00    -0.113 N 
HETATM   21  O4  LBM A   1     -13.495   0.358  -4.937  1.00  0.00    -0.532 OA
HETATM   22  O5  LBM A   1     -12.986   1.510  -3.199  1.00  0.00    -0.532 OA
ENDBRANCH  16  20
BRANCH  17  23
HETATM   23  N3  LBM A   1     -15.761  -0.871  -3.056  1.00  0.00    -0.388 N 
HETATM   24  HN3 LBM A   1     -14.770  -1.054  -2.977  1.00  0.00     0.159 HD
BRANCH  23  25
HETATM   25  C31 LBM A   1     -16.676  -1.983  -2.831  1.00  0.00     0.124 C 
BRANCH  25  26
HETATM   26  C32 LBM A   1     -15.897  -3.223  -2.414  1.00  0.00     0.007 C 
HETATM   27  C33 LBM A   1     -14.455  -2.877  -2.059  1.00  0.00     0.032 C 
HETATM   28  C34 LBM A   1     -13.721  -4.124  -1.615  1.00  0.00     0.168 C 
HETATM   29  O3  LBM A   1     -14.353  -4.721  -0.488  1.00  0.00    -0.391 OA
HETATM   30  C35 LBM A   1     -15.679  -5.128  -0.836  1.00  0.00     0.168 C 
HETATM   31  C36 LBM A   1     -16.521  -3.940  -1.235  1.00  0.00     0.032 C 
ENDBRANCH  25  26
ENDBRANCH  23  25
ENDBRANCH  17  23
ENDBRANCH  11  14
ENDBRANCH   9  11
ENDBRANCH   6   7
BRANCH   2  32
HETATM   32  O6  LBM A   1     -17.772   6.408  -8.618  1.00  0.00    -0.308 OA
BRANCH  32  33
HETATM   33  C37 LBM A   1     -18.960   6.986  -9.018  1.00  0.00     0.094 A 
HETATM   34  C38 LBM A   1     -18.948   8.201  -9.675  1.00  0.00     0.156 A 
HETATM   35  N5  LBM A   1     -20.050   8.808 -10.132  1.00  0.00    -0.240 NA
HETATM   36  C39 LBM A   1     -21.228   8.193  -9.849  1.00  0.00     0.137 A 
HETATM   37  C40 LBM A   1     -21.339   6.971  -9.154  1.00  0.00     0.014 A 
HETATM   38  N6  LBM A   1     -22.471   8.587 -10.252  1.00  0.00    -0.350 N 
HETATM   39  C41 LBM A   1     -20.168   6.337  -8.751  1.00  0.00     0.054 A 
HETATM   40  C42 LBM A   1     -22.761   6.642  -9.143  1.00  0.00     0.032 A 
HETATM   41  C43 LBM A   1     -23.391   7.640  -9.821  1.00  0.00     0.090 A 
HETATM   42  HN6 LBM A   1     -22.685   9.423 -10.775  1.00  0.00     0.166 HD
ENDBRANCH  32  33
ENDBRANCH   2  32
BRANCH   5  43
HETATM   43  N1  LBM A   1     -16.227   3.690 -12.230  1.00  0.00    -0.377 N 
HETATM   44  C15 LBM A   1     -15.419   4.713 -12.910  1.00  0.00     0.153 C 
HETATM   45  C14 LBM A   1     -14.726   4.117 -14.142  1.00  0.00     0.292 C 
HETATM   46  N   LBM A   1     -15.698   3.505 -15.077  1.00  0.00     0.095 N 
HETATM   47  C17 LBM A   1     -16.447   2.459 -14.341  1.00  0.00     0.292 C 
HETATM   48  C16 LBM A   1     -17.176   3.065 -13.155  1.00  0.00     0.153 C 
BRANCH  46  49
HETATM   49  C13 LBM A   1     -15.019   2.917 -16.247  1.00  0.00     0.307 C 
BRANCH  49  50
HETATM   50  C4  LBM A   1     -14.362   3.915 -17.163  1.00  0.00    -0.045 C 
HETATM   51  C3  LBM A   1     -15.243   4.971 -17.781  1.00  0.00     0.037 C 
HETATM   52  C2  LBM A   1     -14.563   5.537 -19.019  1.00  0.00     0.013 C 
HETATM   53  C1  LBM A   1     -13.129   5.990 -18.724  1.00  0.00    -0.043 C 
HETATM   54  C   LBM A   1     -12.525   6.650 -19.961  1.00  0.00     0.015 C 
HETATM   55  C44 LBM A   1     -13.121   6.983 -17.566  1.00  0.00     0.015 C 
HETATM   56  C6  LBM A   1     -12.304   4.757 -18.348  1.00  0.00     0.048 C 
HETATM   57  C5  LBM A   1     -13.036   3.771 -17.491  1.00  0.00    -0.043 C 
BRANCH  57  58
HETATM   58  C7  LBM A   1     -12.211   2.619 -17.074  1.00  0.00    -0.029 A 
HETATM   59  C12 LBM A   1     -11.397   2.711 -15.946  1.00  0.00     0.013 A 
HETATM   60  C11 LBM A   1     -10.684   1.615 -15.515  1.00  0.00     0.024 A 
HETATM   61  C10 LBM A   1     -10.733   0.425 -16.228  1.00  0.00     0.034 A 
HETATM   62  C9  LBM A   1     -11.509   0.335 -17.373  1.00  0.00     0.024 A 
HETATM   63 CL   LBM A   1      -9.778  -0.925 -15.722  1.00  0.00    -0.084 Cl
HETATM   64  C8  LBM A   1     -12.243   1.422 -17.787  1.00  0.00     0.013 A 
ENDBRANCH  57  58
ENDBRANCH  49  50
ENDBRANCH  46  49
ENDBRANCH   5  43
TORSDOF 13
ENDMDL
MODEL 4
REMARK VINA RESULT:     -10.1      1.807      2.354
REMARK  13 active torsions:
REMARK  status: ('A' for Active; 'I' for Inactive)
REMARK    1  A    between atoms: C13_3  and  N_18 
REMARK    2  A    between atoms: C13_3  and  C4_37 
REMARK    3  A    between atoms: C20_9  and  O6_59 
REMARK    4  A    between atoms: C21_25  and  C24_12 
REMARK       I    between atoms: C24_12  and  N2_49 
REMARK    5  A    between atoms: C25_13  and  S_60 
REMARK    6  A    between atoms: C28_15  and  N3_50 
REMARK    7  A    between atoms: C31_17  and  C32_29 
REMARK    8  A    between atoms: C31_17  and  N3_50 
REMARK    9  A    between atoms: C18_23  and  N1_48 
REMARK   10  A    between atoms: C27_26  and  N4_51 
REMARK   11  A    between atoms: C37_34  and  O6_59 
REMARK   12  A    between atoms: C5_43  and  C7_45 
REMARK   13  A    between atoms: N2_49  and  S_60 
ROOT
HETATM    1  C19 LBM A   1     -16.778   3.367 -10.750  1.00  0.00     0.067 A 
HETATM    2  C20 LBM A   1     -17.447   3.437  -9.552  1.00  0.00     0.094 A 
HETATM    3  C22 LBM A   1     -19.482   3.918 -10.691  1.00  0.00     0.022 A 
HETATM    4  C23 LBM A   1     -18.817   3.834 -11.899  1.00  0.00     0.030 A 
HETATM    5  C18 LBM A   1     -17.445   3.545 -11.946  1.00  0.00     0.033 A 
HETATM    6  C21 LBM A   1     -18.814   3.706  -9.477  1.00  0.00     0.067 A 
ENDROOT
BRANCH   6   7
HETATM    7  C24 LBM A   1     -19.574   3.803  -8.187  1.00  0.00     0.268 C 
HETATM    8  O   LBM A   1     -20.660   3.239  -8.010  1.00  0.00    -0.267 OA
HETATM    9  N2  LBM A   1     -18.990   4.536  -7.172  1.00  0.00    -0.246 N 
HETATM   10  HN2 LBM A   1     -18.203   5.132  -7.380  1.00  0.00     0.182 HD
BRANCH   9  11
HETATM   11  S   LBM A   1     -19.541   4.456  -5.666  1.00  0.00     0.265 S 
HETATM   12  O1  LBM A   1     -20.989   4.395  -5.672  1.00  0.00    -0.200 OA
HETATM   13  O2  LBM A   1     -18.907   5.524  -4.958  1.00  0.00    -0.200 OA
BRANCH  11  14
HETATM   14  C25 LBM A   1     -18.917   2.902  -5.046  1.00  0.00     0.082 A 
HETATM   15  C26 LBM A   1     -17.623   2.874  -4.524  1.00  0.00     0.063 A 
HETATM   16  C27 LBM A   1     -17.105   1.673  -4.079  1.00  0.00     0.130 A 
HETATM   17  C28 LBM A   1     -17.835   0.455  -4.119  1.00  0.00     0.061 A 
HETATM   18  C29 LBM A   1     -19.128   0.532  -4.675  1.00  0.00     0.033 A 
HETATM   19  C30 LBM A   1     -19.670   1.745  -5.112  1.00  0.00     0.028 A 
BRANCH  16  20
HETATM   20  N4  LBM A   1     -15.725   1.729  -3.609  1.00  0.00    -0.113 N 
HETATM   21  O4  LBM A   1     -15.066   2.730  -3.807  1.00  0.00    -0.532 OA
HETATM   22  O5  LBM A   1     -15.272   0.733  -3.050  1.00  0.00    -0.532 OA
ENDBRANCH  16  20
BRANCH  17  23
HETATM   23  N3  LBM A   1     -17.304  -0.720  -3.617  1.00  0.00    -0.388 N 
HETATM   24  HN3 LBM A   1     -16.410  -1.022  -3.977  1.00  0.00     0.159 HD
BRANCH  23  25
HETATM   25  C31 LBM A   1     -17.942  -1.551  -2.604  1.00  0.00     0.124 C 
BRANCH  25  26
HETATM   26  C32 LBM A   1     -18.163  -0.745  -1.332  1.00  0.00     0.007 C 
HETATM   27  C33 LBM A   1     -19.637  -0.410  -1.138  1.00  0.00     0.032 C 
HETATM   28  C34 LBM A   1     -19.825   0.359   0.152  1.00  0.00     0.168 C 
HETATM   29  O3  LBM A   1     -19.361  -0.390   1.271  1.00  0.00    -0.391 OA
HETATM   30  C35 LBM A   1     -17.959  -0.636   1.141  1.00  0.00     0.168 C 
HETATM   31  C36 LBM A   1     -17.667  -1.459  -0.091  1.00  0.00     0.032 C 
ENDBRANCH  25  26
ENDBRANCH  23  25
ENDBRANCH  17  23
ENDBRANCH  11  14
ENDBRANCH   9  11
ENDBRANCH   6   7
BRANCH   2  32
HETATM   32  O6  LBM A   1     -16.741   3.279  -8.373  1.00  0.00    -0.308 OA
BRANCH  32  33
HETATM   33  C37 LBM A   1     -16.446   2.023  -7.884  1.00  0.00     0.094 A 
HETATM   34  C38 LBM A   1     -17.356   0.994  -8.034  1.00  0.00     0.156 A 
HETATM   35  N5  LBM A   1     -17.130  -0.261  -7.626  1.00  0.00    -0.240 NA
HETATM   36  C39 LBM A   1     -15.959  -0.472  -6.971  1.00  0.00     0.137 A 
HETATM   37  C40 LBM A   1     -14.987   0.525  -6.741  1.00  0.00     0.014 A 
HETATM   38  N6  LBM A   1     -15.483  -1.666  -6.512  1.00  0.00    -0.350 N 
HETATM   39  C41 LBM A   1     -15.228   1.802  -7.236  1.00  0.00     0.054 A 
HETATM   40  C42 LBM A   1     -13.870  -0.147  -6.084  1.00  0.00     0.032 A 
HETATM   41  C43 LBM A   1     -14.218  -1.458  -5.979  1.00  0.00     0.090 A 
HETATM   42  HN6 LBM A   1     -15.969  -2.550  -6.554  1.00  0.00     0.166 HD
ENDBRANCH  32  33
ENDBRANCH   2  32
BRANCH   5  43
HETATM   43  N1  LBM A   1     -16.758   3.490 -13.146  1.00  0.00    -0.377 N 
HETATM   44  C15 LBM A   1     -15.697   4.446 -13.495  1.00  0.00     0.153 C 
HETATM   45  C14 LBM A   1     -14.798   3.870 -14.596  1.00  0.00     0.292 C 
HETATM   46  N   LBM A   1     -15.576   3.483 -15.795  1.00  0.00     0.095 N 
HETATM   47  C17 LBM A   1     -16.596   2.491 -15.381  1.00  0.00     0.292 C 
HETATM   48  C16 LBM A   1     -17.517   3.086 -14.331  1.00  0.00     0.153 C 
BRANCH  46  49
HETATM   49  C13 LBM A   1     -14.703   2.912 -16.839  1.00  0.00     0.307 C 
BRANCH  49  50
HETATM   50  C4  LBM A   1     -13.938   3.926 -17.646  1.00  0.00    -0.045 C 
HETATM   51  C3  LBM A   1     -14.734   5.002 -18.341  1.00  0.00     0.037 C 
HETATM   52  C2  LBM A   1     -13.909   5.591 -19.475  1.00  0.00     0.013 C 
HETATM   53  C1  LBM A   1     -12.519   6.027 -19.000  1.00  0.00    -0.043 C 
HETATM   54  C   LBM A   1     -11.768   6.712 -20.141  1.00  0.00     0.015 C 
HETATM   55  C44 LBM A   1     -12.645   6.994 -17.827  1.00  0.00     0.015 C 
HETATM   56  C6  LBM A   1     -11.750   4.780 -18.557  1.00  0.00     0.048 C 
HETATM   57  C5  LBM A   1     -12.582   3.781 -17.816  1.00  0.00    -0.043 C 
BRANCH  57  58
HETATM   58  C7  LBM A   1     -11.818   2.614 -17.331  1.00  0.00    -0.029 A 
HETATM   59  C12 LBM A   1     -11.122   2.684 -16.124  1.00  0.00     0.013 A 
HETATM   60  C11 LBM A   1     -10.470   1.575 -15.636  1.00  0.00     0.024 A 
HETATM   61  C10 LBM A   1     -10.460   0.393 -16.364  1.00  0.00     0.034 A 
HETATM   62  C9  LBM A   1     -11.116   0.324 -17.583  1.00  0.00     0.024 A 
HETATM   63 CL   LBM A   1      -9.577  -0.974 -15.779  1.00  0.00    -0.084 Cl
HETATM   64  C8  LBM A   1     -11.791   1.425 -18.057  1.00  0.00     0.013 A 
ENDBRANCH  57  58
ENDBRANCH  49  50
ENDBRANCH  46  49
ENDBRANCH   5  43
TORSDOF 13
ENDMDL
MODEL 5
REMARK VINA RESULT:     -10.0      1.276      2.114
REMARK  13 active torsions:
REMARK  status: ('A' for Active; 'I' for Inactive)
REMARK    1  A    between atoms: C13_3  and  N_18 
REMARK    2  A    between atoms: C13_3  and  C4_37 
REMARK    3  A    between atoms: C20_9  and  O6_59 
REMARK    4  A    between atoms: C21_25  and  C24_12 
REMARK       I    between atoms: C24_12  and  N2_49 
REMARK    5  A    between atoms: C25_13  and  S_60 
REMARK    6  A    between atoms: C28_15  and  N3_50 
REMARK    7  A    between atoms: C31_17  and  C32_29 
REMARK    8  A    between atoms: C31_17  and  N3_50 
REMARK    9  A    between atoms: C18_23  and  N1_48 
REMARK   10  A    between atoms: C27_26  and  N4_51 
REMARK   11  A    between atoms: C37_34  and  O6_59 
REMARK   12  A    between atoms: C5_43  and  C7_45 
REMARK   13  A    between atoms: N2_49  and  S_60 
ROOT
HETATM    1  C19 LBM A   1     -16.302   3.889 -10.095  1.00  0.00     0.067 A 
HETATM    2  C20 LBM A   1     -16.700   4.104  -8.798  1.00  0.00     0.094 A 
HETATM    3  C22 LBM A   1     -17.504   6.268  -9.378  1.00  0.00     0.022 A 
HETATM    4  C23 LBM A   1     -17.119   6.051 -10.687  1.00  0.00     0.030 A 
HETATM    5  C18 LBM A   1     -16.516   4.844 -11.069  1.00  0.00     0.033 A 
HETATM    6  C21 LBM A   1     -17.316   5.288  -8.393  1.00  0.00     0.067 A 
ENDROOT
BRANCH   6   7
HETATM    7  C24 LBM A   1     -17.751   5.561  -6.984  1.00  0.00     0.268 C 
HETATM    8  O   LBM A   1     -18.941   5.649  -6.660  1.00  0.00    -0.267 OA
HETATM    9  N2  LBM A   1     -16.754   5.683  -6.035  1.00  0.00    -0.246 N 
HETATM   10  HN2 LBM A   1     -15.796   5.787  -6.334  1.00  0.00     0.182 HD
BRANCH   9  11
HETATM   11  S   LBM A   1     -17.093   5.663  -4.466  1.00  0.00     0.265 S 
HETATM   12  O1  LBM A   1     -18.423   6.190  -4.241  1.00  0.00    -0.200 OA
HETATM   13  O2  LBM A   1     -15.988   6.298  -3.818  1.00  0.00    -0.200 OA
BRANCH  11  14
HETATM   14  C25 LBM A   1     -17.096   3.930  -4.036  1.00  0.00     0.082 A 
HETATM   15  C26 LBM A   1     -15.930   3.195  -4.252  1.00  0.00     0.063 A 
HETATM   16  C27 LBM A   1     -15.924   1.843  -3.966  1.00  0.00     0.130 A 
HETATM   17  C28 LBM A   1     -17.058   1.159  -3.448  1.00  0.00     0.061 A 
HETATM   18  C29 LBM A   1     -18.216   1.940  -3.268  1.00  0.00     0.033 A 
HETATM   19  C30 LBM A   1     -18.229   3.313  -3.537  1.00  0.00     0.028 A 
BRANCH  16  20
HETATM   20  N4  LBM A   1     -14.683   1.147  -4.283  1.00  0.00    -0.113 N 
HETATM   21  O4  LBM A   1     -13.714   1.295  -3.563  1.00  0.00    -0.532 OA
HETATM   22  O5  LBM A   1     -14.660   0.454  -5.296  1.00  0.00    -0.532 OA
ENDBRANCH  16  20
BRANCH  17  23
HETATM   23  N3  LBM A   1     -17.001  -0.184  -3.125  1.00  0.00    -0.388 N 
HETATM   24  HN3 LBM A   1     -16.667  -0.824  -3.832  1.00  0.00     0.159 HD
BRANCH  23  25
HETATM   25  C31 LBM A   1     -17.387  -0.742  -1.835  1.00  0.00     0.124 C 
BRANCH  25  26
HETATM   26  C32 LBM A   1     -16.379  -1.797  -1.401  1.00  0.00     0.007 C 
HETATM   27  C33 LBM A   1     -16.890  -3.203  -1.690  1.00  0.00     0.032 C 
HETATM   28  C34 LBM A   1     -15.849  -4.223  -1.280  1.00  0.00     0.168 C 
HETATM   29  O3  LBM A   1     -14.623  -4.016  -1.973  1.00  0.00    -0.391 OA
HETATM   30  C35 LBM A   1     -14.090  -2.732  -1.640  1.00  0.00     0.168 C 
HETATM   31  C36 LBM A   1     -15.030  -1.630  -2.070  1.00  0.00     0.032 C 
ENDBRANCH  25  26
ENDBRANCH  23  25
ENDBRANCH  17  23
ENDBRANCH  11  14
ENDBRANCH   9  11
ENDBRANCH   6   7
BRANCH   2  32
HETATM   32  O6  LBM A   1     -16.445   3.135  -7.844  1.00  0.00    -0.308 OA
BRANCH  32  33
HETATM   33  C37 LBM A   1     -17.349   2.120  -7.602  1.00  0.00     0.094 A 
HETATM   34  C38 LBM A   1     -17.016   0.815  -7.907  1.00  0.00     0.156 A 
HETATM   35  N5  LBM A   1     -17.817  -0.231  -7.665  1.00  0.00    -0.240 NA
HETATM   36  C39 LBM A   1     -19.042   0.064  -7.158  1.00  0.00     0.137 A 
HETATM   37  C40 LBM A   1     -19.481   1.368  -6.849  1.00  0.00     0.014 A 
HETATM   38  N6  LBM A   1     -20.005  -0.827  -6.781  1.00  0.00    -0.350 N 
HETATM   39  C41 LBM A   1     -18.597   2.423  -7.053  1.00  0.00     0.054 A 
HETATM   40  C42 LBM A   1     -20.808   1.217  -6.261  1.00  0.00     0.032 A 
HETATM   41  C43 LBM A   1     -21.068  -0.118  -6.238  1.00  0.00     0.090 A 
HETATM   42  HN6 LBM A   1     -19.952  -1.830  -6.879  1.00  0.00     0.166 HD
ENDBRANCH  32  33
ENDBRANCH   2  32
BRANCH   5  43
HETATM   43  N1  LBM A   1     -16.096   4.625 -12.369  1.00  0.00    -0.377 N 
HETATM   44  C15 LBM A   1     -14.883   5.243 -12.924  1.00  0.00     0.153 C 
HETATM   45  C14 LBM A   1     -14.396   4.462 -14.150  1.00  0.00     0.292 C 
HETATM   46  N   LBM A   1     -15.450   4.349 -15.184  1.00  0.00     0.095 N 
HETATM   47  C17 LBM A   1     -16.624   3.683 -14.572  1.00  0.00     0.292 C 
HETATM   48  C16 LBM A   1     -17.135   4.490 -13.392  1.00  0.00     0.153 C 
BRANCH  46  49
HETATM   49  C13 LBM A   1     -14.978   3.578 -16.350  1.00  0.00     0.307 C 
BRANCH  49  50
HETATM   50  C4  LBM A   1     -14.224   4.383 -17.375  1.00  0.00    -0.045 C 
HETATM   51  C3  LBM A   1     -14.973   5.492 -18.071  1.00  0.00     0.037 C 
HETATM   52  C2  LBM A   1     -14.270   5.837 -19.375  1.00  0.00     0.013 C 
HETATM   53  C1  LBM A   1     -12.776   6.106 -19.162  1.00  0.00    -0.043 C 
HETATM   54  C   LBM A   1     -12.134   6.556 -20.473  1.00  0.00     0.015 C 
HETATM   55  C44 LBM A   1     -12.584   7.192 -18.107  1.00  0.00     0.015 C 
HETATM   56  C6  LBM A   1     -12.117   4.809 -18.689  1.00  0.00     0.048 C 
HETATM   57  C5  LBM A   1     -12.945   4.022 -17.721  1.00  0.00    -0.043 C 
BRANCH  57  58
HETATM   58  C7  LBM A   1     -12.273   2.807 -17.215  1.00  0.00    -0.029 A 
HETATM   59  C12 LBM A   1     -11.487   2.869 -16.065  1.00  0.00     0.013 A 
HETATM   60  C11 LBM A   1     -10.920   1.724 -15.552  1.00  0.00     0.024 A 
HETATM   61  C10 LBM A   1     -11.088   0.509 -16.203  1.00  0.00     0.034 A 
HETATM   62  C9  LBM A   1     -11.836   0.444 -17.368  1.00  0.00     0.024 A 
HETATM   63 CL   LBM A   1     -10.312  -0.911 -15.593  1.00  0.00    -0.084 Cl
HETATM   64  C8  LBM A   1     -12.425   1.584 -17.865  1.00  0.00     0.013 A 
ENDBRANCH  57  58
ENDBRANCH  49  50
ENDBRANCH  46  49
ENDBRANCH   5  43
TORSDOF 13
ENDMDL
MODEL 6
REMARK VINA RESULT:      -9.7      3.603      6.086
REMARK  13 active torsions:
REMARK  status: ('A' for Active; 'I' for Inactive)
REMARK    1  A    between atoms: C13_3  and  N_18 
REMARK    2  A    between atoms: C13_3  and  C4_37 
REMARK    3  A    between atoms: C20_9  and  O6_59 
REMARK    4  A    between atoms: C21_25  and  C24_12 
REMARK       I    between atoms: C24_12  and  N2_49 
REMARK    5  A    between atoms: C25_13  and  S_60 
REMARK    6  A    between atoms: C28_15  and  N3_50 
REMARK    7  A    between atoms: C31_17  and  C32_29 
REMARK    8  A    between atoms: C31_17  and  N3_50 
REMARK    9  A    between atoms: C18_23  and  N1_48 
REMARK   10  A    between atoms: C27_26  and  N4_51 
REMARK   11  A    between atoms: C37_34  and  O6_59 
REMARK   12  A    between atoms: C5_43  and  C7_45 
REMARK   13  A    between atoms: N2_49  and  S_60 
ROOT
HETATM    1  C19 LBM A   1     -17.818   4.127 -11.030  1.00  0.00     0.067 A 
HETATM    2  C20 LBM A   1     -18.403   4.736  -9.946  1.00  0.00     0.094 A 
HETATM    3  C22 LBM A   1     -17.909   6.880 -10.856  1.00  0.00     0.022 A 
HETATM    4  C23 LBM A   1     -17.334   6.272 -11.956  1.00  0.00     0.030 A 
HETATM    5  C18 LBM A   1     -17.288   4.875 -12.063  1.00  0.00     0.033 A 
HETATM    6  C21 LBM A   1     -18.477   6.123  -9.821  1.00  0.00     0.067 A 
ENDROOT
BRANCH   6   7
HETATM    7  C24 LBM A   1     -19.096   6.822  -8.647  1.00  0.00     0.268 C 
HETATM    8  O   LBM A   1     -18.957   8.034  -8.445  1.00  0.00    -0.267 OA
HETATM    9  N2  LBM A   1     -19.867   6.053  -7.798  1.00  0.00    -0.246 N 
HETATM   10  HN2 LBM A   1     -19.827   5.047  -7.867  1.00  0.00     0.182 HD
BRANCH   9  11
HETATM   11  S   LBM A   1     -20.824   6.730  -6.701  1.00  0.00     0.265 S 
HETATM   12  O1  LBM A   1     -21.627   5.714  -6.052  1.00  0.00    -0.200 OA
HETATM   13  O2  LBM A   1     -21.491   7.803  -7.371  1.00  0.00    -0.200 OA
BRANCH  11  14
HETATM   14  C25 LBM A   1     -19.700   7.414  -5.493  1.00  0.00     0.082 A 
HETATM   15  C26 LBM A   1     -18.608   6.641  -5.098  1.00  0.00     0.063 A 
HETATM   16  C27 LBM A   1     -17.750   7.134  -4.133  1.00  0.00     0.130 A 
HETATM   17  C28 LBM A   1     -17.923   8.406  -3.524  1.00  0.00     0.061 A 
HETATM   18  C29 LBM A   1     -19.053   9.138  -3.941  1.00  0.00     0.033 A 
HETATM   19  C30 LBM A   1     -19.917   8.658  -4.930  1.00  0.00     0.028 A 
BRANCH  16  20
HETATM   20  N4  LBM A   1     -16.675   6.231  -3.740  1.00  0.00    -0.113 N 
HETATM   21  O4  LBM A   1     -15.569   6.681  -3.512  1.00  0.00    -0.532 OA
HETATM   22  O5  LBM A   1     -16.929   5.030  -3.684  1.00  0.00    -0.532 OA
ENDBRANCH  16  20
BRANCH  17  23
HETATM   23  N3  LBM A   1     -17.016   8.889  -2.598  1.00  0.00    -0.388 N 
HETATM   24  HN3 LBM A   1     -16.081   8.508  -2.614  1.00  0.00     0.159 HD
BRANCH  23  25
HETATM   25  C31 LBM A   1     -17.314   9.910  -1.602  1.00  0.00     0.124 C 
BRANCH  25  26
HETATM   26  C32 LBM A   1     -16.076  10.753  -1.333  1.00  0.00     0.007 C 
HETATM   27  C33 LBM A   1     -16.406  12.241  -1.344  1.00  0.00     0.032 C 
HETATM   28  C34 LBM A   1     -15.162  13.047  -1.039  1.00  0.00     0.168 C 
HETATM   29  O3  LBM A   1     -14.618  12.695   0.229  1.00  0.00    -0.391 OA
HETATM   30  C35 LBM A   1     -14.224  11.321   0.222  1.00  0.00     0.168 C 
HETATM   31  C36 LBM A   1     -15.413  10.420  -0.012  1.00  0.00     0.032 C 
ENDBRANCH  25  26
ENDBRANCH  23  25
ENDBRANCH  17  23
ENDBRANCH  11  14
ENDBRANCH   9  11
ENDBRANCH   6   7
BRANCH   2  32
HETATM   32  O6  LBM A   1     -18.900   3.955  -8.919  1.00  0.00    -0.308 OA
BRANCH  32  33
HETATM   33  C37 LBM A   1     -18.080   3.089  -8.224  1.00  0.00     0.094 A 
HETATM   34  C38 LBM A   1     -17.440   3.516  -7.078  1.00  0.00     0.156 A 
HETATM   35  N5  LBM A   1     -16.663   2.728  -6.324  1.00  0.00    -0.240 NA
HETATM   36  C39 LBM A   1     -16.465   1.467  -6.790  1.00  0.00     0.137 A 
HETATM   37  C40 LBM A   1     -17.048   0.956  -7.968  1.00  0.00     0.014 A 
HETATM   38  N6  LBM A   1     -15.763   0.471  -6.175  1.00  0.00    -0.350 N 
HETATM   39  C41 LBM A   1     -17.901   1.784  -8.690  1.00  0.00     0.054 A 
HETATM   40  C42 LBM A   1     -16.637  -0.442  -8.045  1.00  0.00     0.032 A 
HETATM   41  C43 LBM A   1     -15.875  -0.680  -6.943  1.00  0.00     0.090 A 
HETATM   42  HN6 LBM A   1     -15.251   0.557  -5.310  1.00  0.00     0.166 HD
ENDBRANCH  32  33
ENDBRANCH   2  32
BRANCH   5  43
HETATM   43  N1  LBM A   1     -16.686   4.251 -13.141  1.00  0.00    -0.377 N 
HETATM   44  C15 LBM A   1     -16.783   2.802 -13.372  1.00  0.00     0.153 C 
HETATM   45  C14 LBM A   1     -16.478   2.472 -14.839  1.00  0.00     0.292 C 
HETATM   46  N   LBM A   1     -15.153   2.985 -15.255  1.00  0.00     0.095 N 
HETATM   47  C17 LBM A   1     -15.138   4.451 -15.034  1.00  0.00     0.292 C 
HETATM   48  C16 LBM A   1     -15.384   4.769 -13.570  1.00  0.00     0.153 C 
BRANCH  46  49
HETATM   49  C13 LBM A   1     -14.880   2.680 -16.672  1.00  0.00     0.307 C 
BRANCH  49  50
HETATM   50  C4  LBM A   1     -14.172   3.773 -17.428  1.00  0.00    -0.045 C 
HETATM   51  C3  LBM A   1     -15.027   4.839 -18.067  1.00  0.00     0.037 C 
HETATM   52  C2  LBM A   1     -14.238   5.526 -19.170  1.00  0.00     0.013 C 
HETATM   53  C1  LBM A   1     -12.871   6.012 -18.675  1.00  0.00    -0.043 C 
HETATM   54  C   LBM A   1     -12.161   6.792 -19.781  1.00  0.00     0.015 C 
HETATM   55  C44 LBM A   1     -13.044   6.911 -17.454  1.00  0.00     0.015 C 
HETATM   56  C6  LBM A   1     -12.035   4.787 -18.296  1.00  0.00     0.048 C 
HETATM   57  C5  LBM A   1     -12.811   3.709 -17.606  1.00  0.00    -0.043 C 
BRANCH  57  58
HETATM   58  C7  LBM A   1     -11.984   2.561 -17.180  1.00  0.00    -0.029 A 
HETATM   59  C12 LBM A   1     -11.320   2.592 -15.955  1.00  0.00     0.013 A 
HETATM   60  C11 LBM A   1     -10.608   1.495 -15.525  1.00  0.00     0.024 A 
HETATM   61  C10 LBM A   1     -10.508   0.369 -16.329  1.00  0.00     0.034 A 
HETATM   62  C9  LBM A   1     -11.133   0.342 -17.567  1.00  0.00     0.024 A 
HETATM   63 CL   LBM A   1      -9.552  -0.977 -15.815  1.00  0.00    -0.084 Cl
HETATM   64  C8  LBM A   1     -11.866   1.429 -17.983  1.00  0.00     0.013 A 
ENDBRANCH  57  58
ENDBRANCH  49  50
ENDBRANCH  46  49
ENDBRANCH   5  43
TORSDOF 13
ENDMDL
MODEL 7
REMARK VINA RESULT:      -9.6      6.157     13.979
REMARK  13 active torsions:
REMARK  status: ('A' for Active; 'I' for Inactive)
REMARK    1  A    between atoms: C13_3  and  N_18 
REMARK    2  A    between atoms: C13_3  and  C4_37 
REMARK    3  A    between atoms: C20_9  and  O6_59 
REMARK    4  A    between atoms: C21_25  and  C24_12 
REMARK       I    between atoms: C24_12  and  N2_49 
REMARK    5  A    between atoms: C25_13  and  S_60 
REMARK    6  A    between atoms: C28_15  and  N3_50 
REMARK    7  A    between atoms: C31_17  and  C32_29 
REMARK    8  A    between atoms: C31_17  and  N3_50 
REMARK    9  A    between atoms: C18_23  and  N1_48 
REMARK   10  A    between atoms: C27_26  and  N4_51 
REMARK   11  A    between atoms: C37_34  and  O6_59 
REMARK   12  A    between atoms: C5_43  and  C7_45 
REMARK   13  A    between atoms: N2_49  and  S_60 
ROOT
HETATM    1  C19 LBM A   1     -15.347   4.304 -14.182  1.00  0.00     0.067 A 
HETATM    2  C20 LBM A   1     -14.982   4.797 -15.411  1.00  0.00     0.094 A 
HETATM    3  C22 LBM A   1     -15.616   6.993 -14.743  1.00  0.00     0.022 A 
HETATM    4  C23 LBM A   1     -15.969   6.504 -13.500  1.00  0.00     0.030 A 
HETATM    5  C18 LBM A   1     -15.830   5.142 -13.196  1.00  0.00     0.033 A 
HETATM    6  C21 LBM A   1     -15.095   6.149 -15.735  1.00  0.00     0.067 A 
ENDROOT
BRANCH   6   7
HETATM    7  C24 LBM A   1     -14.720   6.720 -17.070  1.00  0.00     0.268 C 
HETATM    8  O   LBM A   1     -14.062   7.760 -17.188  1.00  0.00    -0.267 OA
HETATM    9  N2  LBM A   1     -15.118   6.010 -18.187  1.00  0.00    -0.246 N 
HETATM   10  HN2 LBM A   1     -15.797   5.270 -18.088  1.00  0.00     0.182 HD
BRANCH   9  11
HETATM   11  S   LBM A   1     -14.519   6.341 -19.639  1.00  0.00     0.265 S 
HETATM   12  O1  LBM A   1     -13.072   6.381 -19.579  1.00  0.00    -0.200 OA
HETATM   13  O2  LBM A   1     -15.216   7.502 -20.096  1.00  0.00    -0.200 OA
BRANCH  11  14
HETATM   14  C25 LBM A   1     -15.000   4.947 -20.645  1.00  0.00     0.082 A 
HETATM   15  C26 LBM A   1     -13.994   4.163 -21.210  1.00  0.00     0.063 A 
HETATM   16  C27 LBM A   1     -14.344   3.105 -22.027  1.00  0.00     0.130 A 
HETATM   17  C28 LBM A   1     -15.694   2.767 -22.316  1.00  0.00     0.061 A 
HETATM   18  C29 LBM A   1     -16.672   3.602 -21.740  1.00  0.00     0.033 A 
HETATM   19  C30 LBM A   1     -16.330   4.664 -20.897  1.00  0.00     0.028 A 
BRANCH  16  20
HETATM   20  N4  LBM A   1     -13.225   2.382 -22.621  1.00  0.00    -0.113 N 
HETATM   21  O4  LBM A   1     -12.484   2.958 -23.393  1.00  0.00    -0.532 OA
HETATM   22  O5  LBM A   1     -13.096   1.195 -22.334  1.00  0.00    -0.532 OA
ENDBRANCH  16  20
BRANCH  17  23
HETATM   23  N3  LBM A   1     -16.009   1.670 -23.097  1.00  0.00    -0.388 N 
HETATM   24  HN3 LBM A   1     -15.430   0.848 -23.007  1.00  0.00     0.159 HD
BRANCH  23  25
HETATM   25  C31 LBM A   1     -17.120   1.616 -24.040  1.00  0.00     0.124 C 
BRANCH  25  26
HETATM   26  C32 LBM A   1     -18.141   0.583 -23.584  1.00  0.00     0.007 C 
HETATM   27  C33 LBM A   1     -17.488  -0.502 -22.736  1.00  0.00     0.032 C 
HETATM   28  C34 LBM A   1     -18.536  -1.490 -22.271  1.00  0.00     0.168 C 
HETATM   29  O3  LBM A   1     -19.552  -0.845 -21.509  1.00  0.00    -0.391 OA
HETATM   30  C35 LBM A   1     -20.229   0.116 -22.323  1.00  0.00     0.168 C 
HETATM   31  C36 LBM A   1     -19.278   1.193 -22.790  1.00  0.00     0.032 C 
ENDBRANCH  25  26
ENDBRANCH  23  25
ENDBRANCH  17  23
ENDBRANCH  11  14
ENDBRANCH   9  11
ENDBRANCH   6   7
BRANCH   2  32
HETATM   32  O6  LBM A   1     -14.528   3.923 -16.382  1.00  0.00    -0.308 OA
BRANCH  32  33
HETATM   33  C37 LBM A   1     -13.365   3.202 -16.201  1.00  0.00     0.094 A 
HETATM   34  C38 LBM A   1     -12.245   3.821 -15.681  1.00  0.00     0.156 A 
HETATM   35  N5  LBM A   1     -11.092   3.185 -15.435  1.00  0.00    -0.240 NA
HETATM   36  C39 LBM A   1     -11.046   1.877 -15.800  1.00  0.00     0.137 A 
HETATM   37  C40 LBM A   1     -12.127   1.172 -16.369  1.00  0.00     0.014 A 
HETATM   38  N6  LBM A   1     -10.009   1.011 -15.603  1.00  0.00    -0.350 N 
HETATM   39  C41 LBM A   1     -13.329   1.850 -16.549  1.00  0.00     0.054 A 
HETATM   40  C42 LBM A   1     -11.671  -0.205 -16.526  1.00  0.00     0.032 A 
HETATM   41  C43 LBM A   1     -10.400  -0.246 -16.045  1.00  0.00     0.090 A 
HETATM   42  HN6 LBM A   1      -9.113   1.245 -15.204  1.00  0.00     0.166 HD
ENDBRANCH  32  33
ENDBRANCH   2  32
BRANCH   5  43
HETATM   43  N1  LBM A   1     -16.210   4.632 -11.967  1.00  0.00    -0.377 N 
HETATM   44  C15 LBM A   1     -16.969   3.380 -11.831  1.00  0.00     0.153 C 
HETATM   45  C14 LBM A   1     -16.813   2.811 -10.415  1.00  0.00     0.292 C 
HETATM   46  N   LBM A   1     -17.220   3.790  -9.381  1.00  0.00     0.095 N 
HETATM   47  C17 LBM A   1     -16.391   5.007  -9.549  1.00  0.00     0.292 C 
HETATM   48  C16 LBM A   1     -16.592   5.597 -10.934  1.00  0.00     0.153 C 
BRANCH  46  49
HETATM   49  C13 LBM A   1     -17.046   3.240  -8.023  1.00  0.00     0.307 C 
BRANCH  49  50
HETATM   50  C4  LBM A   1     -18.214   2.437  -7.514  1.00  0.00    -0.045 C 
HETATM   51  C3  LBM A   1     -19.556   2.684  -8.156  1.00  0.00     0.037 C 
HETATM   52  C2  LBM A   1     -20.659   2.210  -7.222  1.00  0.00     0.013 C 
HETATM   53  C1  LBM A   1     -20.427   0.769  -6.754  1.00  0.00    -0.043 C 
HETATM   54  C   LBM A   1     -21.611   0.297  -5.911  1.00  0.00     0.015 C 
HETATM   55  C44 LBM A   1     -20.264  -0.154  -7.957  1.00  0.00     0.015 C 
HETATM   56  C6  LBM A   1     -19.152   0.739  -5.907  1.00  0.00     0.048 C 
HETATM   57  C5  LBM A   1     -18.052   1.608  -6.431  1.00  0.00    -0.043 C 
BRANCH  57  58
HETATM   58  C7  LBM A   1     -16.802   1.519  -5.649  1.00  0.00    -0.029 A 
HETATM   59  C12 LBM A   1     -16.536   2.449  -4.645  1.00  0.00     0.013 A 
HETATM   60  C11 LBM A   1     -15.406   2.325  -3.867  1.00  0.00     0.024 A 
HETATM   61  C10 LBM A   1     -14.501   1.301  -4.109  1.00  0.00     0.034 A 
HETATM   62  C9  LBM A   1     -14.737   0.394  -5.131  1.00  0.00     0.024 A 
HETATM   63 CL   LBM A   1     -13.049   1.195  -3.177  1.00  0.00    -0.084 Cl
HETATM   64  C8  LBM A   1     -15.879   0.503  -5.889  1.00  0.00     0.013 A 
ENDBRANCH  57  58
ENDBRANCH  49  50
ENDBRANCH  46  49
ENDBRANCH   5  43
TORSDOF 13
ENDMDL
MODEL 8
REMARK VINA RESULT:      -9.6      6.563     14.379
REMARK  13 active torsions:
REMARK  status: ('A' for Active; 'I' for Inactive)
REMARK    1  A    between atoms: C13_3  and  N_18 
REMARK    2  A    between atoms: C13_3  and  C4_37 
REMARK    3  A    between atoms: C20_9  and  O6_59 
REMARK    4  A    between atoms: C21_25  and  C24_12 
REMARK       I    between atoms: C24_12  and  N2_49 
REMARK    5  A    between atoms: C25_13  and  S_60 
REMARK    6  A    between atoms: C28_15  and  N3_50 
REMARK    7  A    between atoms: C31_17  and  C32_29 
REMARK    8  A    between atoms: C31_17  and  N3_50 
REMARK    9  A    between atoms: C18_23  and  N1_48 
REMARK   10  A    between atoms: C27_26  and  N4_51 
REMARK   11  A    between atoms: C37_34  and  O6_59 
REMARK   12  A    between atoms: C5_43  and  C7_45 
REMARK   13  A    between atoms: N2_49  and  S_60 
ROOT
HETATM    1  C19 LBM A   1     -15.101   4.284 -14.539  1.00  0.00     0.067 A 
HETATM    2  C20 LBM A   1     -14.755   4.827 -15.753  1.00  0.00     0.094 A 
HETATM    3  C22 LBM A   1     -15.585   6.950 -15.065  1.00  0.00     0.022 A 
HETATM    4  C23 LBM A   1     -15.921   6.412 -13.837  1.00  0.00     0.030 A 
HETATM    5  C18 LBM A   1     -15.673   5.062 -13.552  1.00  0.00     0.033 A 
HETATM    6  C21 LBM A   1     -14.976   6.170 -16.058  1.00  0.00     0.067 A 
ENDROOT
BRANCH   6   7
HETATM    7  C24 LBM A   1     -14.623   6.794 -17.377  1.00  0.00     0.268 C 
HETATM    8  O   LBM A   1     -13.962   7.835 -17.465  1.00  0.00    -0.267 OA
HETATM    9  N2  LBM A   1     -15.046   6.132 -18.513  1.00  0.00    -0.246 N 
HETATM   10  HN2 LBM A   1     -15.728   5.392 -18.431  1.00  0.00     0.182 HD
BRANCH   9  11
HETATM   11  S   LBM A   1     -14.474   6.519 -19.962  1.00  0.00     0.265 S 
HETATM   12  O1  LBM A   1     -13.027   6.573 -19.923  1.00  0.00    -0.200 OA
HETATM   13  O2  LBM A   1     -15.190   7.688 -20.368  1.00  0.00    -0.200 OA
BRANCH  11  14
HETATM   14  C25 LBM A   1     -14.957   5.155 -21.009  1.00  0.00     0.082 A 
HETATM   15  C26 LBM A   1     -13.964   4.282 -21.453  1.00  0.00     0.063 A 
HETATM   16  C27 LBM A   1     -14.310   3.245 -22.298  1.00  0.00     0.130 A 
HETATM   17  C28 LBM A   1     -15.643   3.017 -22.735  1.00  0.00     0.061 A 
HETATM   18  C29 LBM A   1     -16.605   3.939 -22.276  1.00  0.00     0.033 A 
HETATM   19  C30 LBM A   1     -16.270   4.981 -21.406  1.00  0.00     0.028 A 
BRANCH  16  20
HETATM   20  N4  LBM A   1     -13.197   2.423 -22.760  1.00  0.00    -0.113 N 
HETATM   21  O4  LBM A   1     -13.186   1.234 -22.506  1.00  0.00    -0.532 OA
HETATM   22  O5  LBM A   1     -12.288   2.982 -23.369  1.00  0.00    -0.532 OA
ENDBRANCH  16  20
BRANCH  17  23
HETATM   23  N3  LBM A   1     -15.961   1.938 -23.540  1.00  0.00    -0.388 N 
HETATM   24  HN3 LBM A   1     -15.363   1.126 -23.495  1.00  0.00     0.159 HD
BRANCH  23  25
HETATM   25  C31 LBM A   1     -17.099   1.891 -24.449  1.00  0.00     0.124 C 
BRANCH  25  26
HETATM   26  C32 LBM A   1     -17.961   0.675 -24.142  1.00  0.00     0.007 C 
HETATM   27  C33 LBM A   1     -18.040  -0.264 -25.340  1.00  0.00     0.032 C 
HETATM   28  C34 LBM A   1     -18.873  -1.478 -24.988  1.00  0.00     0.168 C 
HETATM   29  O3  LBM A   1     -18.322  -2.177 -23.878  1.00  0.00    -0.391 OA
HETATM   30  C35 LBM A   1     -18.324  -1.332 -22.724  1.00  0.00     0.168 C 
HETATM   31  C36 LBM A   1     -17.462  -0.112 -22.948  1.00  0.00     0.032 C 
ENDBRANCH  25  26
ENDBRANCH  23  25
ENDBRANCH  17  23
ENDBRANCH  11  14
ENDBRANCH   9  11
ENDBRANCH   6   7
BRANCH   2  32
HETATM   32  O6  LBM A   1     -14.209   4.012 -16.727  1.00  0.00    -0.308 OA
BRANCH  32  33
HETATM   33  C37 LBM A   1     -13.112   3.218 -16.457  1.00  0.00     0.094 A 
HETATM   34  C38 LBM A   1     -11.991   3.769 -15.869  1.00  0.00     0.156 A 
HETATM   35  N5  LBM A   1     -10.904   3.062 -15.535  1.00  0.00    -0.240 NA
HETATM   36  C39 LBM A   1     -10.922   1.748 -15.879  1.00  0.00     0.137 A 
HETATM   37  C40 LBM A   1     -12.007   1.107 -16.512  1.00  0.00     0.014 A 
HETATM   38  N6  LBM A   1      -9.962   0.818 -15.600  1.00  0.00    -0.350 N 
HETATM   39  C41 LBM A   1     -13.145   1.860 -16.784  1.00  0.00     0.054 A 
HETATM   40  C42 LBM A   1     -11.636  -0.300 -16.620  1.00  0.00     0.032 A 
HETATM   41  C43 LBM A   1     -10.406  -0.418 -16.051  1.00  0.00     0.090 A 
HETATM   42  HN6 LBM A   1      -9.081   0.999 -15.142  1.00  0.00     0.166 HD
ENDBRANCH  32  33
ENDBRANCH   2  32
BRANCH   5  43
HETATM   43  N1  LBM A   1     -16.033   4.501 -12.339  1.00  0.00    -0.377 N 
HETATM   44  C15 LBM A   1     -15.170   4.565 -11.151  1.00  0.00     0.153 C 
HETATM   45  C14 LBM A   1     -15.993   4.331  -9.878  1.00  0.00     0.292 C 
HETATM   46  N   LBM A   1     -16.729   3.047  -9.927  1.00  0.00     0.095 N 
HETATM   47  C17 LBM A   1     -17.607   3.066 -11.121  1.00  0.00     0.292 C 
HETATM   48  C16 LBM A   1     -16.780   3.242 -12.382  1.00  0.00     0.153 C 
BRANCH  46  49
HETATM   49  C13 LBM A   1     -17.533   2.843  -8.707  1.00  0.00     0.307 C 
BRANCH  49  50
HETATM   50  C4  LBM A   1     -16.896   1.953  -7.673  1.00  0.00    -0.045 C 
HETATM   51  C3  LBM A   1     -16.339   0.633  -8.144  1.00  0.00     0.037 C 
HETATM   52  C2  LBM A   1     -16.218  -0.316  -6.962  1.00  0.00     0.013 C 
HETATM   53  C1  LBM A   1     -15.456   0.322  -5.796  1.00  0.00    -0.043 C 
HETATM   54  C   LBM A   1     -15.261  -0.701  -4.677  1.00  0.00     0.015 C 
HETATM   55  C44 LBM A   1     -14.093   0.819  -6.268  1.00  0.00     0.015 C 
HETATM   56  C6  LBM A   1     -16.279   1.501  -5.272  1.00  0.00     0.048 C 
HETATM   57  C5  LBM A   1     -16.940   2.308  -6.346  1.00  0.00    -0.043 C 
BRANCH  57  58
HETATM   58  C7  LBM A   1     -17.675   3.484  -5.839  1.00  0.00    -0.029 A 
HETATM   59  C12 LBM A   1     -17.087   4.748  -5.879  1.00  0.00     0.013 A 
HETATM   60  C11 LBM A   1     -17.797   5.856  -5.474  1.00  0.00     0.024 A 
HETATM   61  C10 LBM A   1     -19.086   5.716  -4.978  1.00  0.00     0.034 A 
HETATM   62  C9  LBM A   1     -19.665   4.459  -4.897  1.00  0.00     0.024 A 
HETATM   63 CL   LBM A   1     -19.945   7.102  -4.402  1.00  0.00    -0.084 Cl
HETATM   64  C8  LBM A   1     -18.965   3.357  -5.328  1.00  0.00     0.013 A 
ENDBRANCH  57  58
ENDBRANCH  49  50
ENDBRANCH  46  49
ENDBRANCH   5  43
TORSDOF 13
ENDMDL
MODEL 9
REMARK VINA RESULT:      -9.4      6.371     14.119
REMARK  13 active torsions:
REMARK  status: ('A' for Active; 'I' for Inactive)
REMARK    1  A    between atoms: C13_3  and  N_18 
REMARK    2  A    between atoms: C13_3  and  C4_37 
REMARK    3  A    between atoms: C20_9  and  O6_59 
REMARK    4  A    between atoms: C21_25  and  C24_12 
REMARK       I    between atoms: C24_12  and  N2_49 
REMARK    5  A    between atoms: C25_13  and  S_60 
REMARK    6  A    between atoms: C28_15  and  N3_50 
REMARK    7  A    between atoms: C31_17  and  C32_29 
REMARK    8  A    between atoms: C31_17  and  N3_50 
REMARK    9  A    between atoms: C18_23  and  N1_48 
REMARK   10  A    between atoms: C27_26  and  N4_51 
REMARK   11  A    between atoms: C37_34  and  O6_59 
REMARK   12  A    between atoms: C5_43  and  C7_45 
REMARK   13  A    between atoms: N2_49  and  S_60 
ROOT
HETATM    1  C19 LBM A   1     -15.023   4.347 -14.611  1.00  0.00     0.067 A 
HETATM    2  C20 LBM A   1     -14.713   4.913 -15.824  1.00  0.00     0.094 A 
HETATM    3  C22 LBM A   1     -15.696   6.971 -15.139  1.00  0.00     0.022 A 
HETATM    4  C23 LBM A   1     -15.996   6.411 -13.912  1.00  0.00     0.030 A 
HETATM    5  C18 LBM A   1     -15.652   5.082 -13.625  1.00  0.00     0.033 A 
HETATM    6  C21 LBM A   1     -15.029   6.237 -16.130  1.00  0.00     0.067 A 
ENDROOT
BRANCH   6   7
HETATM    7  C24 LBM A   1     -14.718   6.884 -17.448  1.00  0.00     0.268 C 
HETATM    8  O   LBM A   1     -14.161   7.984 -17.534  1.00  0.00    -0.267 OA
HETATM    9  N2  LBM A   1     -15.056   6.177 -18.585  1.00  0.00    -0.246 N 
HETATM   10  HN2 LBM A   1     -15.663   5.374 -18.508  1.00  0.00     0.182 HD
BRANCH   9  11
HETATM   11  S   LBM A   1     -14.501   6.609 -20.028  1.00  0.00     0.265 S 
HETATM   12  O1  LBM A   1     -13.057   6.713 -19.992  1.00  0.00    -0.200 OA
HETATM   13  O2  LBM A   1     -15.258   7.760 -20.411  1.00  0.00    -0.200 OA
BRANCH  11  14
HETATM   14  C25 LBM A   1     -14.940   5.248 -21.098  1.00  0.00     0.082 A 
HETATM   15  C26 LBM A   1     -13.950   4.321 -21.423  1.00  0.00     0.063 A 
HETATM   16  C27 LBM A   1     -14.257   3.284 -22.284  1.00  0.00     0.130 A 
HETATM   17  C28 LBM A   1     -15.547   3.110 -22.853  1.00  0.00     0.061 A 
HETATM   18  C29 LBM A   1     -16.505   4.085 -22.511  1.00  0.00     0.033 A 
HETATM   19  C30 LBM A   1     -16.212   5.128 -21.627  1.00  0.00     0.028 A 
BRANCH  16  20
HETATM   20  N4  LBM A   1     -13.143   2.402 -22.615  1.00  0.00    -0.113 N 
HETATM   21  O4  LBM A   1     -13.150   1.254 -22.214  1.00  0.00    -0.532 OA
HETATM   22  O5  LBM A   1     -12.217   2.873 -23.269  1.00  0.00    -0.532 OA
ENDBRANCH  16  20
BRANCH  17  23
HETATM   23  N3  LBM A   1     -15.833   2.031 -23.670  1.00  0.00    -0.388 N 
HETATM   24  HN3 LBM A   1     -15.059   1.467 -23.990  1.00  0.00     0.159 HD
BRANCH  23  25
HETATM   25  C31 LBM A   1     -17.172   1.652 -24.102  1.00  0.00     0.124 C 
BRANCH  25  26
HETATM   26  C32 LBM A   1     -17.856   0.831 -23.018  1.00  0.00     0.007 C 
HETATM   27  C33 LBM A   1     -19.310   1.253 -22.840  1.00  0.00     0.032 C 
HETATM   28  C34 LBM A   1     -19.969   0.394 -21.782  1.00  0.00     0.168 C 
HETATM   29  O3  LBM A   1     -19.919  -0.985 -22.133  1.00  0.00    -0.391 OA
HETATM   30  C35 LBM A   1     -18.557  -1.413 -22.218  1.00  0.00     0.168 C 
HETATM   31  C36 LBM A   1     -17.821  -0.657 -23.298  1.00  0.00     0.032 C 
ENDBRANCH  25  26
ENDBRANCH  23  25
ENDBRANCH  17  23
ENDBRANCH  11  14
ENDBRANCH   9  11
ENDBRANCH   6   7
BRANCH   2  32
HETATM   32  O6  LBM A   1     -14.107   4.139 -16.796  1.00  0.00    -0.308 OA
BRANCH  32  33
HETATM   33  C37 LBM A   1     -13.040   3.319 -16.488  1.00  0.00     0.094 A 
HETATM   34  C38 LBM A   1     -11.911   3.850 -15.897  1.00  0.00     0.156 A 
HETATM   35  N5  LBM A   1     -10.852   3.117 -15.529  1.00  0.00    -0.240 NA
HETATM   36  C39 LBM A   1     -10.906   1.795 -15.839  1.00  0.00     0.137 A 
HETATM   37  C40 LBM A   1     -12.002   1.173 -16.473  1.00  0.00     0.014 A 
HETATM   38  N6  LBM A   1      -9.981   0.844 -15.521  1.00  0.00    -0.350 N 
HETATM   39  C41 LBM A   1     -13.111   1.954 -16.781  1.00  0.00     0.054 A 
HETATM   40  C42 LBM A   1     -11.675  -0.247 -16.538  1.00  0.00     0.032 A 
HETATM   41  C43 LBM A   1     -10.458  -0.389 -15.948  1.00  0.00     0.090 A 
HETATM   42  HN6 LBM A   1      -9.102   1.009 -15.054  1.00  0.00     0.166 HD
ENDBRANCH  32  33
ENDBRANCH   2  32
BRANCH   5  43
HETATM   43  N1  LBM A   1     -15.975   4.496 -12.414  1.00  0.00    -0.377 N 
HETATM   44  C15 LBM A   1     -15.102   4.588 -11.234  1.00  0.00     0.153 C 
HETATM   45  C14 LBM A   1     -15.901   4.310  -9.954  1.00  0.00     0.292 C 
HETATM   46  N   LBM A   1     -16.582   2.996 -10.006  1.00  0.00     0.095 N 
HETATM   47  C17 LBM A   1     -17.472   2.986 -11.190  1.00  0.00     0.292 C 
HETATM   48  C16 LBM A   1     -16.668   3.207 -12.459  1.00  0.00     0.153 C 
BRANCH  46  49
HETATM   49  C13 LBM A   1     -17.363   2.748  -8.779  1.00  0.00     0.307 C 
BRANCH  49  50
HETATM   50  C4  LBM A   1     -16.698   1.839  -7.781  1.00  0.00    -0.045 C 
HETATM   51  C3  LBM A   1     -15.194   1.741  -7.828  1.00  0.00     0.037 C 
HETATM   52  C2  LBM A   1     -14.748   0.455  -7.149  1.00  0.00     0.013 C 
HETATM   53  C1  LBM A   1     -15.357   0.310  -5.750  1.00  0.00    -0.043 C 
HETATM   54  C   LBM A   1     -14.797  -0.935  -5.063  1.00  0.00     0.015 C 
HETATM   55  C44 LBM A   1     -15.034   1.540  -4.907  1.00  0.00     0.015 C 
HETATM   56  C6  LBM A   1     -16.874   0.173  -5.898  1.00  0.00     0.048 C 
HETATM   57  C5  LBM A   1     -17.466   1.056  -6.952  1.00  0.00    -0.043 C 
BRANCH  57  58
HETATM   58  C7  LBM A   1     -18.937   0.971  -7.041  1.00  0.00    -0.029 A 
HETATM   59  C12 LBM A   1     -19.735   1.895  -6.368  1.00  0.00     0.013 A 
HETATM   60  C11 LBM A   1     -21.104   1.861  -6.508  1.00  0.00     0.024 A 
HETATM   61  C10 LBM A   1     -21.702   0.877  -7.283  1.00  0.00     0.034 A 
HETATM   62  C9  LBM A   1     -20.920  -0.071  -7.925  1.00  0.00     0.024 A 
HETATM   63 CL   LBM A   1     -23.426   0.795  -7.396  1.00  0.00    -0.084 Cl
HETATM   64  C8  LBM A   1     -19.551  -0.019  -7.806  1.00  0.00     0.013 A 
ENDBRANCH  57  58
ENDBRANCH  49  50
ENDBRANCH  46  49
ENDBRANCH   5  43
TORSDOF 13
ENDMDL
