REMARK  Name = min_compound950.pdb
REMARK  4 active torsions:
REMARK  status: ('A' for Active; 'I' for Inactive)
REMARK    1  A    between atoms: _7  and  _14
REMARK    2  A    between atoms: _9  and  _17
REMARK    3  A    between atoms: _10  and  _12
REMARK    4  A    between atoms: _13  and  _14
REMARK                            x       y       z     vdW  Elec       q    Type
REMARK                         _______ _______ _______ _____ _____    ______ ____
ROOT
ATOM      1  S   UNL     1      -3.067  -0.706  -0.013  0.00  0.00    -0.072 S 
ATOM      2  C   UNL     1      -2.250  -2.250   0.000  0.00  0.00    +0.076 A 
ATOM      3  C   UNL     1      -0.750  -2.250   0.000  0.00  0.00    +0.073 C 
ATOM      4  N   UNL     1      -3.139  -3.260   0.007  0.00  0.00    -0.244 NA
ATOM      5  C   UNL     1      -4.526  -2.818   0.003  0.00  0.00    +0.080 A 
ATOM      6  C   UNL     1      -5.794  -3.568   0.008  0.00  0.00    +0.057 A 
ATOM      7  C   UNL     1      -7.156  -3.000   0.000  0.00  0.00    +0.111 A 
ATOM      8  C   UNL     1      -7.133  -1.601  -0.013  0.00  0.00    +0.030 A 
ATOM      9  C   UNL     1      -5.930  -0.824  -0.017  0.00  0.00    +0.019 A 
ATOM     10  C   UNL     1      -4.648  -1.435  -0.009  0.00  0.00    +0.039 A 
ENDROOT
BRANCH   7  11
ATOM     11  S   UNL     1      -8.455  -3.750   0.000  0.00  0.00    +0.074 S 
ATOM     12  O   UNL     1      -8.117  -4.422  -1.263  0.00  0.00    -0.150 OA
ATOM     13  O   UNL     1      -8.127  -4.401   1.277  0.00  0.00    -0.150 OA
BRANCH  11  14
ATOM     14  N   UNL     1      -9.754  -4.500   0.000  0.00  0.00    -0.186 N 
ATOM     15  H   UNL     1      -9.654  -5.507  -0.012  0.00  0.00    +0.177 HD
ATOM     16  C   UNL     1     -11.012  -3.906  -0.002  0.00  0.00    +0.229 C 
ATOM     17  C   UNL     1     -12.163  -4.868  -0.030  0.00  0.00    +0.111 C 
ATOM     18  O   UNL     1     -11.153  -2.690  -0.003  0.00  0.00    -0.275 OA
ENDBRANCH  11  14
ENDBRANCH   7  11
TORSDOF 2
