REMARK  Name = min_compound958.pdb
REMARK  8 active torsions:
REMARK  status: ('A' for Active; 'I' for Inactive)
REMARK    1  A    between atoms: _8  and  _15
REMARK    2  A    between atoms: _9  and  _10
REMARK    3  A    between atoms: _10  and  _12
REMARK    4  A    between atoms: _12  and  _16
REMARK    5  A    between atoms: _14  and  _15
REMARK    6  A    between atoms: _14  and  _18
REMARK    7  A    between atoms: _16  and  _17
REMARK    8  A    between atoms: _18  and  _19
REMARK                            x       y       z     vdW  Elec       q    Type
REMARK                         _______ _______ _______ _____ _____    ______ ____
ROOT
ATOM      1  C   UNL     1      -6.304  -6.123   0.000  0.00  0.00    +0.005 C 
ATOM      2  C   UNL     1      -6.304  -7.623   0.000  0.00  0.00    +0.005 C 
ATOM      3  C   UNL     1      -5.258  -7.825   1.300  0.00  0.00    +0.042 C 
ATOM      4  C   UNL     1      -3.920  -7.185   1.058  0.00  0.00    -0.013 C 
ATOM      5  S   UNL     1      -2.469  -7.592   1.873  0.00  0.00    -0.106 S 
ATOM      6  C   UNL     1      -1.519  -6.842   0.631  0.00  0.00    +0.152 C 
ATOM      7  C   UNL     1      -2.301  -5.843   0.032  0.00  0.00    +0.155 C 
ATOM      8  C   UNL     1      -3.729  -6.126   0.207  0.00  0.00    -0.044 C 
ATOM      9  C   UNL     1      -4.934  -5.473  -0.439  0.00  0.00    +0.032 C 
ENDROOT
BRANCH   6  10
ATOM     10  N   UNL     1      -0.130  -7.096   0.545  0.00  0.00    -0.313 N 
ATOM     11  H   UNL     1       0.412  -6.261   0.333  0.00  0.00    +0.149 HD
BRANCH  10  12
ATOM     12  C   UNL     1       0.637  -8.241   0.326  0.00  0.00    +0.131 C 
ATOM     13  S   UNL     1       2.303  -8.079   0.311  0.00  0.00    -0.019 S 
BRANCH  12  14
ATOM     14  N   UNL     1       0.102  -9.471   0.000  0.00  0.00    -0.330 N 
ATOM     15  H   UNL     1       0.683 -10.274  -0.210  0.00  0.00    +0.147 HD
ATOM     16  C   UNL     1      -1.398  -9.471   0.000  0.00  0.00    +0.127 C 
ENDBRANCH  12  14
ENDBRANCH  10  12
ENDBRANCH   6  10
BRANCH   7  17
ATOM     17  C   UNL     1      -1.777  -4.731  -0.756  0.00  0.00    +0.317 C 
ATOM     18  O   UNL     1      -2.449  -4.108  -1.568  0.00  0.00    -0.250 OA
BRANCH  17  19
ATOM     19  O   UNL     1      -0.497  -4.403  -0.405  0.00  0.00    -0.464 OA
BRANCH  19  20
ATOM     20  C   UNL     1      -0.010  -3.162  -0.936  0.00  0.00    +0.229 C 
ATOM     21  C   UNL     1      -0.553  -1.992  -0.131  0.00  0.00    +0.048 C 
ENDBRANCH  19  20
ENDBRANCH  17  19
ENDBRANCH   7  17
TORSDOF 6
