REMARK  Name = min_compound930.pdb
REMARK  6 active torsions:
REMARK  status: ('A' for Active; 'I' for Inactive)
REMARK    1  A    between atoms: _3  and  _19
REMARK    2  A    between atoms: _16  and  _18
REMARK    3  A    between atoms: _18  and  _21
REMARK    4  A    between atoms: _19  and  _20
REMARK    5  A    between atoms: _21  and  _22
REMARK    6  A    between atoms: _22  and  _23
REMARK                            x       y       z     vdW  Elec       q    Type
REMARK                         _______ _______ _______ _____ _____    ______ ____
ROOT
ATOM      1  C   UNL     1       1.276   4.757   0.705  0.00  0.00    +0.004 A 
ATOM      2  C   UNL     1       1.368   3.393   0.411  0.00  0.00    +0.049 A 
ATOM      3  C   UNL     1       2.528   2.870  -0.168  0.00  0.00    +0.162 A 
ATOM      4  C   UNL     1       3.602   3.736  -0.435  0.00  0.00    +0.175 A 
ATOM      5  O   UNL     1       4.706   3.235  -1.089  0.00  0.00    -0.450 OA
ATOM      6  C   UNL     1       5.933   3.325  -0.460  0.00  0.00    +0.149 A 
ATOM      7  C   UNL     1       6.707   2.160  -0.590  0.00  0.00    +0.049 A 
ATOM      8  C   UNL     1       7.995   2.096  -0.061  0.00  0.00    +0.019 A 
ATOM      9  C   UNL     1       8.515   3.203   0.607  0.00  0.00    +0.061 A 
ATOM     10  C   UNL     1       7.733   4.355   0.765  0.00  0.00    +0.041 A 
ATOM     11  C   UNL     1       6.460   4.467   0.178  0.00  0.00    +0.071 A 
ATOM     12  N   UNL     1       5.784   5.683   0.373  0.00  0.00    -0.337 N 
ATOM     13  H   UNL     1       6.417   6.467   0.489  0.00  0.00    +0.147 HD
ATOM     14  C   UNL     1       4.664   5.993  -0.498  0.00  0.00    +0.140 C 
ATOM     15  C   UNL     1       3.507   5.106  -0.165  0.00  0.00    +0.015 A 
ATOM     16  C   UNL     1       2.340   5.610   0.420  0.00  0.00    +0.009 A 
ENDROOT
BRANCH   3  17
ATOM     17  O   UNL     1       2.709   1.554  -0.510  0.00  0.00    -0.491 OA
ATOM     18  C   UNL     1       1.636   0.661  -0.246  0.00  0.00    +0.277 C 
ENDBRANCH   3  17
BRANCH   9  19
ATOM     19  C   UNL     1       9.883   3.119   1.177  0.00  0.00    +0.339 C 
ATOM     20  O   UNL     1      10.286   2.091   1.703  0.00  0.00    -0.245 OA
BRANCH  19  21
ATOM     21  O   UNL     1      10.629   4.253   1.123  0.00  0.00    -0.461 OA
BRANCH  21  22
ATOM     22  C   UNL     1      10.676   5.010  -0.101  0.00  0.00    +0.229 C 
ATOM     23  C   UNL     1      12.080   5.563  -0.260  0.00  0.00    +0.048 C 
ENDBRANCH  21  22
ENDBRANCH  19  21
ENDBRANCH   9  19
TORSDOF 4
