REMARK  Name = min_compound948.pdb
REMARK  4 active torsions:
REMARK  status: ('A' for Active; 'I' for Inactive)
REMARK    1  A    between atoms: _4  and  _15
REMARK    2  A    between atoms: _8  and  _9
REMARK    3  A    between atoms: _10  and  _18
REMARK    4  A    between atoms: _14  and  _19
REMARK                            x       y       z     vdW  Elec       q    Type
REMARK                         _______ _______ _______ _____ _____    ______ ____
ROOT
ATOM      1  C   UNL     1      -3.398   2.031  -0.111  0.00  0.00    +0.099 A 
ATOM      2  N   UNL     1      -2.099   1.512  -0.046  0.00  0.00    -0.240 N 
ATOM      3  C   UNL     1      -1.614   0.230  -0.142  0.00  0.00    +0.397 A 
ATOM      4  C   UNL     1      -0.250   0.292  -0.007  0.00  0.00    +0.240 A 
ATOM      5  N   UNL     1       0.136   1.613   0.135  0.00  0.00    -0.204 NA
ATOM      6  C   UNL     1      -0.973   2.322   0.116  0.00  0.00    +0.145 A 
ATOM      7  C   UNL     1      -1.181   3.727   0.215  0.00  0.00    +0.047 A 
ATOM      8  C   UNL     1      -2.430   4.225   0.153  0.00  0.00    +0.005 A 
ATOM      9  C   UNL     1      -3.585   3.359  -0.013  0.00  0.00    +0.018 A 
ENDROOT
BRANCH   4  10
ATOM     10  N   UNL     1       0.792  -0.686  -0.007  0.00  0.00    -0.274 N 
ATOM     11  C   UNL     1       0.776  -2.073   0.140  0.00  0.00    +0.119 A 
ATOM     12  C   UNL     1      -0.396  -2.908   0.506  0.00  0.00    +0.087 C 
ATOM     13  N   UNL     1       1.990  -2.586   0.017  0.00  0.00    -0.167 NA
ATOM     14  C   UNL     1       2.833  -1.516  -0.140  0.00  0.00    +0.385 A 
ATOM     15  C   UNL     1       2.128  -0.340  -0.126  0.00  0.00    +0.201 A 
BRANCH  14  16
ATOM     16  N   UNL     1       4.262  -1.688  -0.273  0.00  0.00    +0.102 N 
ATOM     17  O   UNL     1       4.712  -2.841  -0.244  0.00  0.00    +0.043 OA
ATOM     18  O   UNL     1       4.936  -0.654  -0.404  0.00  0.00    -0.575 OA
ENDBRANCH  14  16
ENDBRANCH   4  10
BRANCH   3  19
ATOM     19  N   UNL     1      -2.475  -0.819  -0.489  0.00  0.00    +0.103 N 
ATOM     20  O   UNL     1      -2.285  -1.338  -1.592  0.00  0.00    +0.043 OA
ATOM     21  O   UNL     1      -3.341  -1.123   0.336  0.00  0.00    -0.575 OA
ENDBRANCH   3  19
TORSDOF 3
