REMARK  Name = min_compound931.pdb
REMARK  1 active torsions:
REMARK  status: ('A' for Active; 'I' for Inactive)
REMARK    1  A    between atoms: _9  and  _13
REMARK                            x       y       z     vdW  Elec       q    Type
REMARK                         _______ _______ _______ _____ _____    ______ ____
ROOT
ATOM      1  C   UNL     1      -3.464   1.253  -0.549  0.00  0.00    +0.183 A 
ATOM      2  N   UNL     1      -3.614   0.151  -1.245  0.00  0.00    -0.148 NA
ATOM      3  N   UNL     1      -2.543  -0.705  -1.079  0.00  0.00    -0.126 NA
ATOM      4  C   UNL     1      -1.618  -0.227  -0.274  0.00  0.00    +0.191 A 
ATOM      5  N   UNL     1      -0.426  -0.831   0.113  0.00  0.00    -0.231 N 
ATOM      6  C   UNL     1      -0.132  -2.098  -0.400  0.00  0.00    +0.232 C 
ATOM      7  C   UNL     1       1.151  -2.667   0.169  0.00  0.00    +0.167 C 
ATOM      8  S   UNL     1       1.641  -1.619   1.543  0.00  0.00    -0.123 S 
ATOM      9  O   UNL     1      -0.777  -2.741  -1.222  0.00  0.00    -0.274 OA
ATOM     10  C   UNL     1       0.565  -0.273   1.006  0.00  0.00    +0.178 C 
ATOM     11  S   UNL     1      -2.018   1.324   0.361  0.00  0.00    -0.038 S 
ENDROOT
BRANCH  10  12
ATOM     12  C   UNL     1       1.373   0.835   0.368  0.00  0.00    +0.021 A 
ATOM     13  S   UNL     1       1.981   0.726  -1.239  0.00  0.00    -0.099 S 
ATOM     14  C   UNL     1       2.702   2.271  -1.150  0.00  0.00    +0.045 A 
ATOM     15  C   UNL     1       2.496   2.868   0.072  0.00  0.00    +0.008 A 
ATOM     16  C   UNL     1       1.735   2.041   0.947  0.00  0.00    +0.014 A 
ENDBRANCH  10  12
TORSDOF 1
