REMARK  Name = min_compound970.pdb
REMARK  2 active torsions:
REMARK  status: ('A' for Active; 'I' for Inactive)
REMARK    1  A    between atoms: _2  and  _17
REMARK    2  A    between atoms: _11  and  _12
REMARK                            x       y       z     vdW  Elec       q    Type
REMARK                         _______ _______ _______ _____ _____    ______ ____
ROOT
ATOM      1  C   UNL     1       4.880   5.137  -0.092  0.00  0.00    +0.098 A 
ATOM      2  C   UNL     1       4.827   3.788  -0.009  0.00  0.00    +0.053 A 
ATOM      3  N   UNL     1       6.013   3.056   0.065  0.00  0.00    -0.339 N 
ATOM      4  H   UNL     1       5.936   2.054   0.194  0.00  0.00    +0.167 HD
ATOM      5  C   UNL     1       7.230   3.647   0.035  0.00  0.00    +0.139 A 
ATOM      6  C   UNL     1       8.518   3.183   0.060  0.00  0.00    +0.079 A 
ATOM      7  C   UNL     1       9.319   4.351   0.006  0.00  0.00    +0.130 A 
ATOM      8  N   UNL     1       8.581   5.469  -0.045  0.00  0.00    -0.159 NA
ATOM      9  N   UNL     1       7.301   5.022  -0.038  0.00  0.00    -0.179 N 
ATOM     10  C   UNL     1       6.182   5.861  -0.096  0.00  0.00    +0.275 A 
ATOM     11  O   UNL     1       6.271   7.081  -0.148  0.00  0.00    -0.266 OA
ENDROOT
BRANCH   2  12
ATOM     12  C   UNL     1       3.514   3.051  -0.005  0.00  0.00    -0.001 A 
ATOM     13  C   UNL     1       2.280   3.727   0.092  0.00  0.00    +0.010 A 
ATOM     14  C   UNL     1       1.057   3.044   0.090  0.00  0.00    +0.001 A 
ATOM     15  C   UNL     1       1.030   1.659   0.006  0.00  0.00    +0.000 A 
ATOM     16  C   UNL     1       2.226   0.960  -0.085  0.00  0.00    +0.001 A 
ATOM     17  C   UNL     1       3.448   1.647  -0.099  0.00  0.00    +0.010 A 
ENDBRANCH   2  12
BRANCH   7  18
ATOM     18  C   UNL     1      10.815   4.396   0.004  0.00  0.00    +0.155 A 
ATOM     19  C   UNL     1      11.676   3.313   0.028  0.00  0.00    +0.051 A 
ATOM     20  C   UNL     1      12.995   3.832   0.014  0.00  0.00    +0.042 A 
ATOM     21  C   UNL     1      12.864   5.199  -0.016  0.00  0.00    +0.196 A 
ATOM     22  O   UNL     1      11.554   5.549  -0.025  0.00  0.00    -0.461 OA
ENDBRANCH   7  18
TORSDOF 2
