REMARK  Name = min_compound964.pdb
REMARK  4 active torsions:
REMARK  status: ('A' for Active; 'I' for Inactive)
REMARK    1  A    between atoms: _5  and  _7
REMARK    2  A    between atoms: _7  and  _9
REMARK    3  A    between atoms: _9  and  _10
REMARK    4  A    between atoms: _9  and  _16
REMARK                            x       y       z     vdW  Elec       q    Type
REMARK                         _______ _______ _______ _____ _____    ______ ____
ROOT
ATOM      1  P   UNL     1       2.826   6.998   0.000  0.00  0.00    +0.263 P 
ATOM      2  O   UNL     1       2.826   8.498   0.000  0.00  0.00    -0.281 OA
ENDROOT
BRANCH   1   3
ATOM      3  C   UNL     1       4.326   6.998   0.000  0.00  0.00    +0.041 A 
ATOM      4  C   UNL     1       5.107   7.012   1.186  0.00  0.00    +0.014 A 
ATOM      5  C   UNL     1       6.508   7.031   1.192  0.00  0.00    +0.001 A 
ATOM      6  C   UNL     1       7.205   7.065  -0.006  0.00  0.00    +0.000 A 
ATOM      7  C   UNL     1       6.501   7.099  -1.201  0.00  0.00    +0.001 A 
ATOM      8  C   UNL     1       5.101   7.077  -1.188  0.00  0.00    +0.014 A 
ENDBRANCH   1   3
BRANCH   1   9
ATOM      9  C   UNL     1       2.826   5.498   0.000  0.00  0.00    +0.041 A 
ATOM     10  C   UNL     1       2.741   4.726   1.188  0.00  0.00    +0.014 A 
ATOM     11  C   UNL     1       2.702   3.326   1.201  0.00  0.00    +0.001 A 
ATOM     12  C   UNL     1       2.725   2.622   0.006  0.00  0.00    +0.000 A 
ATOM     13  C   UNL     1       2.771   3.319  -1.193  0.00  0.00    +0.001 A 
ATOM     14  C   UNL     1       2.806   4.719  -1.187  0.00  0.00    +0.014 A 
ENDBRANCH   1   9
BRANCH   1  15
ATOM     15  O   UNL     1       1.326   6.998   0.000  0.00  0.00    -0.318 OA
BRANCH  15  20
ATOM     16  C   UNL     1      -1.528   9.661  -0.787  0.00  0.00    +0.003 C 
ATOM     17  C   UNL     1      -0.924  10.895   0.000  0.00  0.00    +0.000 C 
ATOM     18  C   UNL     1       0.576  10.895   0.000  0.00  0.00    +0.003 C 
ATOM     19  C   UNL     1       0.719   9.386   0.702  0.00  0.00    +0.032 C 
ATOM     20  C   UNL     1       0.439   8.235   0.013  0.00  0.00    +0.127 C 
ATOM     21  C   UNL     1      -0.601   8.412  -1.052  0.00  0.00    +0.032 C 
ENDBRANCH  15  20
ENDBRANCH   1  15
TORSDOF 4
