REMARK  Name = min_compound959.pdb
REMARK  6 active torsions:
REMARK  status: ('A' for Active; 'I' for Inactive)
REMARK    1  A    between atoms: _1  and  _12
REMARK    2  A    between atoms: _6  and  _18
REMARK    3  A    between atoms: _9  and  _11
REMARK    4  A    between atoms: _9  and  _18
REMARK    5  A    between atoms: _11  and  _19
REMARK    6  A    between atoms: _19  and  _20
REMARK                            x       y       z     vdW  Elec       q    Type
REMARK                         _______ _______ _______ _____ _____    ______ ____
ROOT
ATOM      1  C   UNL     1      -1.617   0.872   0.224  0.00  0.00    +0.338 C 
ATOM      2  N   UNL     1      -0.798  -0.209   0.301  0.00  0.00    -0.132 N 
ATOM      3  H   UNL     1      -1.022  -1.167   0.258  0.00  0.00    +0.323 HD
ATOM      4  N   UNL     1       0.497   0.427   0.463  0.00  0.00    -0.119 N 
ATOM      5  C   UNL     1       1.719   0.029  -0.056  0.00  0.00    +0.069 C 
ATOM      6  C   UNL     1       2.475   1.086  -0.439  0.00  0.00    +0.070 C 
ATOM      7  S   UNL     1       1.674   2.659  -0.249  0.00  0.00    -0.045 S 
ATOM      8  C   UNL     1       0.274   1.772   0.324  0.00  0.00    +0.378 C 
ATOM      9  N   UNL     1      -1.059   2.064   0.223  0.00  0.00    -0.031 NA
ENDROOT
BRANCH   1  10
ATOM     10  C   UNL     1      -3.086   0.675   0.121  0.00  0.00    +0.067 A 
ATOM     11  C   UNL     1      -3.914   1.803   0.051  0.00  0.00    +0.016 A 
ATOM     12  C   UNL     1      -5.300   1.662  -0.052  0.00  0.00    +0.001 A 
ATOM     13  C   UNL     1      -5.869   0.390  -0.089  0.00  0.00    +0.000 A 
ATOM     14  C   UNL     1      -5.054  -0.740  -0.021  0.00  0.00    +0.001 A 
ATOM     15  C   UNL     1      -3.666  -0.599   0.084  0.00  0.00    +0.016 A 
ENDBRANCH   1  10
BRANCH   5  16
ATOM     16  C   UNL     1       2.057  -1.428  -0.127  0.00  0.00    +0.175 C 
BRANCH  16  17
ATOM     17  C   UNL     1       3.487  -1.696  -0.542  0.00  0.00    +0.313 C 
ATOM     18  O   UNL     1       3.837  -2.055  -1.661  0.00  0.00    -0.250 OA
BRANCH  17  19
ATOM     19  O   UNL     1       4.346  -1.454   0.493  0.00  0.00    -0.465 OA
BRANCH  19  20
ATOM     20  C   UNL     1       5.742  -1.536   0.182  0.00  0.00    +0.229 C 
ATOM     21  C   UNL     1       6.245  -2.952   0.380  0.00  0.00    +0.048 C 
ENDBRANCH  19  20
ENDBRANCH  17  19
ENDBRANCH  16  17
ENDBRANCH   5  16
TORSDOF 5
