REMARK  Name = min_compound996.pdb
REMARK  5 active torsions:
REMARK  status: ('A' for Active; 'I' for Inactive)
REMARK    1  A    between atoms: _2  and  _9
REMARK    2  A    between atoms: _2  and  _19
REMARK    3  A    between atoms: _10  and  _19
REMARK    4  A    between atoms: _19  and  _20
REMARK    5  A    between atoms: _19  and  _21
REMARK                            x       y       z     vdW  Elec       q    Type
REMARK                         _______ _______ _______ _____ _____    ______ ____
ROOT
ATOM      1  S   UNL     1      -7.551   1.263   0.411  0.00  0.00    -0.013 S 
ENDROOT
BRANCH   1   2
ATOM      2  C   UNL     1      -6.089   0.287   0.197  0.00  0.00    +0.124 A 
ATOM      3  C   UNL     1      -4.855   0.932   0.134  0.00  0.00    +0.097 A 
ATOM      4  C   UNL     1      -3.718   0.110  -0.047  0.00  0.00    +0.002 A 
ATOM      5  C   UNL     1      -3.845  -1.287  -0.157  0.00  0.00    +0.010 A 
ATOM      6  C   UNL     1      -5.095  -1.894  -0.090  0.00  0.00    +0.003 A 
ATOM      7  C   UNL     1      -2.456   0.715  -0.111  0.00  0.00    +0.011 A 
ATOM      8  C   UNL     1      -2.337   2.093   0.005  0.00  0.00    +0.020 A 
ATOM      9  C   UNL     1      -3.491   2.824   0.180  0.00  0.00    +0.111 A 
ATOM     10  N   UNL     1      -4.724   2.274   0.240  0.00  0.00    -0.253 NA
ATOM     11  C   UNL     1      -6.224  -1.108   0.087  0.00  0.00    +0.030 A 
ENDBRANCH   1   2
BRANCH   1  12
ATOM     12  O   UNL     1      -7.554   1.714   1.791  0.00  0.00    -0.263 OA
ATOM     13  H   UNL     1      -6.753   2.232   1.963  0.00  0.00    +0.244 HD
ENDBRANCH   1  12
BRANCH   1  14
ATOM     14  O   UNL     1      -8.658   0.461  -0.089  0.00  0.00    -0.263 OA
ATOM     15  H   UNL     1      -8.504   0.244  -1.022  0.00  0.00    +0.244 HD
ENDBRANCH   1  14
BRANCH   1  16
ATOM     16  O   UNL     1      -7.374   2.526  -0.610  0.00  0.00    -0.363 OA
BRANCH  16  21
ATOM     17 CL   UNL     1     -10.122   7.640   0.248  0.00  0.00    -0.084 Cl
ATOM     18  C   UNL     1      -9.335   6.130   0.001  0.00  0.00    +0.041 A 
ATOM     19  C   UNL     1     -10.079   4.950   0.017  0.00  0.00    +0.023 A 
ATOM     20  C   UNL     1      -9.442   3.722  -0.182  0.00  0.00    +0.050 A 
ATOM     21  C   UNL     1      -8.062   3.687  -0.383  0.00  0.00    +0.155 A 
ATOM     22  C   UNL     1      -7.323   4.870  -0.421  0.00  0.00    +0.050 A 
ATOM     23  C   UNL     1      -7.959   6.096  -0.220  0.00  0.00    +0.023 A 
ENDBRANCH  16  21
ENDBRANCH   1  16
TORSDOF 5
