REMARK  Name = min_compound95.pdb
REMARK  4 active torsions:
REMARK  status: ('A' for Active; 'I' for Inactive)
REMARK    1  A    between atoms: _4  and  _8
REMARK    2  A    between atoms: _9  and  _10
REMARK    3  A    between atoms: _10  and  _11
REMARK    4  A    between atoms: _11  and  _12
REMARK                            x       y       z     vdW  Elec       q    Type
REMARK                         _______ _______ _______ _____ _____    ______ ____
ROOT
ATOM      1 CL   UNL     1       0.887   3.628  -0.314  0.00  0.00    -0.060 Cl
ATOM      2  C   UNL     1       2.446   2.916  -0.126  0.00  0.00    +0.155 A 
ATOM      3  C   UNL     1       3.583   3.703   0.000  0.00  0.00    +0.102 A 
ATOM      4  C   UNL     1       4.772   2.968   0.065  0.00  0.00    +0.144 A 
ATOM      5  N   UNL     1       5.987   3.704   0.093  0.00  0.00    -0.325 N 
ATOM      6  H   UNL     1       5.959   4.334  -0.709  0.00  0.00    +0.148 HD
ATOM      7  N   UNL     1       4.791   1.624   0.133  0.00  0.00    -0.219 NA
ATOM      8  C   UNL     1       3.609   0.996   0.062  0.00  0.00    +0.225 A 
ATOM      9  N   UNL     1       2.415   1.573  -0.080  0.00  0.00    -0.222 NA
ENDROOT
BRANCH   3  10
ATOM     10  N   UNL     1       3.606   5.112  -0.160  0.00  0.00    -0.353 N 
ATOM     11  H   UNL     1       2.721   5.539   0.110  0.00  0.00    +0.143 HD
ATOM     12  H   UNL     1       4.394   5.506   0.356  0.00  0.00    +0.143 HD
ENDBRANCH   3  10
BRANCH   5  13
ATOM     13  C   UNL     1       7.190   2.875   0.121  0.00  0.00    +0.130 C 
BRANCH  13  14
ATOM     14  C   UNL     1       8.446   3.755   0.120  0.00  0.00    +0.174 C 
BRANCH  14  15
ATOM     15  O   UNL     1       9.632   2.972   0.210  0.00  0.00    -0.393 OA
ATOM     16  H   UNL     1       9.649   2.367  -0.551  0.00  0.00    +0.209 HD
ENDBRANCH  14  15
ENDBRANCH  13  14
ENDBRANCH   5  13
TORSDOF 4
