REMARK  Name = min_compound984.pdb
REMARK  5 active torsions:
REMARK  status: ('A' for Active; 'I' for Inactive)
REMARK    1  A    between atoms: _2  and  _21
REMARK    2  A    between atoms: _9  and  _10
REMARK    3  A    between atoms: _15  and  _16
REMARK    4  A    between atoms: _19  and  _20
REMARK    5  A    between atoms: _21  and  _22
REMARK                            x       y       z     vdW  Elec       q    Type
REMARK                         _______ _______ _______ _____ _____    ______ ____
ROOT
ATOM      1  C   UNL     1      -8.320   2.865  -0.015  0.00  0.00    +0.056 A 
ATOM      2  C   UNL     1      -7.708   1.591  -0.028  0.00  0.00    +0.011 A 
ATOM      3  C   UNL     1      -6.353   1.139  -0.088  0.00  0.00    +0.008 A 
ATOM      4  C   UNL     1      -5.146   1.839  -0.203  0.00  0.00    +0.011 A 
ATOM      5  C   UNL     1      -3.948   1.131  -0.232  0.00  0.00    +0.013 A 
ATOM      6  C   UNL     1      -3.864  -0.261  -0.057  0.00  0.00    +0.029 A 
ATOM      7  C   UNL     1      -2.562  -0.865  -0.078  0.00  0.00    +0.125 A 
ATOM      8  C   UNL     1      -2.576  -2.240   0.182  0.00  0.00    +0.049 A 
ATOM      9  C   UNL     1      -3.739  -2.975   0.473  0.00  0.00    +0.049 A 
ATOM     10  C   UNL     1      -5.036  -2.435   0.505  0.00  0.00    +0.127 A 
ATOM     11  C   UNL     1      -5.092  -1.025   0.159  0.00  0.00    +0.051 A 
ATOM     12  C   UNL     1      -6.333  -0.259   0.023  0.00  0.00    +0.061 A 
ATOM     13  N   UNL     1      -7.671  -0.629  -0.101  0.00  0.00    -0.342 N 
ATOM     14  C   UNL     1      -8.157  -1.924  -0.529  0.00  0.00    +0.149 C 
ATOM     15  C   UNL     1      -8.515   0.465   0.008  0.00  0.00    +0.050 A 
ATOM     16  C   UNL     1      -9.915   0.554   0.076  0.00  0.00    +0.030 A 
ATOM     17  C   UNL     1     -10.499   1.828   0.105  0.00  0.00    +0.047 A 
ATOM     18  C   UNL     1      -9.714   2.979   0.055  0.00  0.00    +0.121 A 
ENDROOT
BRANCH   7  19
ATOM     19  O   UNL     1      -1.446  -0.259  -0.304  0.00  0.00    -0.506 OA
ATOM     20  H   UNL     1      -1.440   0.662  -0.478  0.00  0.00    +0.292 HD
ENDBRANCH   7  19
BRANCH  10  21
ATOM     21  O   UNL     1      -6.010  -3.190   0.870  0.00  0.00    -0.506 OA
ATOM     22  H   UNL     1      -6.882  -2.849   0.898  0.00  0.00    +0.292 HD
ENDBRANCH  10  21
BRANCH  18  23
ATOM     23  O   UNL     1     -10.181   4.268   0.067  0.00  0.00    -0.495 OA
ATOM     24  C   UNL     1     -11.588   4.435   0.170  0.00  0.00    +0.277 C 
ENDBRANCH  18  23
TORSDOF 3
