REMARK  Name = min_compound967.pdb
REMARK  3 active torsions:
REMARK  status: ('A' for Active; 'I' for Inactive)
REMARK    1  A    between atoms: _1  and  _2
REMARK    2  A    between atoms: _1  and  _17
REMARK    3  A    between atoms: _8  and  _18
REMARK                            x       y       z     vdW  Elec       q    Type
REMARK                         _______ _______ _______ _____ _____    ______ ____
ROOT
ATOM      1  N   UNL     1       5.972   3.453  -0.275  0.00  0.00    -0.293 N 
ATOM      2  H   UNL     1       6.191   3.003  -1.153  0.00  0.00    +0.151 HD
ATOM      3  C   UNL     1       6.954   3.585   0.683  0.00  0.00    +0.245 C 
ATOM      4  O   UNL     1       6.843   4.154   1.762  0.00  0.00    -0.270 OA
ENDROOT
BRANCH   3   5
ATOM      5  C   UNL     1       8.259   2.984   0.323  0.00  0.00    +0.037 A 
ATOM      6  C   UNL     1       8.337   1.670  -0.154  0.00  0.00    +0.014 A 
ATOM      7  C   UNL     1       9.585   1.117  -0.453  0.00  0.00    +0.021 A 
ATOM      8  C   UNL     1      10.742   1.878  -0.282  0.00  0.00    +0.041 A 
ATOM      9  C   UNL     1      10.667   3.186   0.197  0.00  0.00    +0.021 A 
ATOM     10 CL   UNL     1      12.275   1.192  -0.653  0.00  0.00    -0.084 Cl
ATOM     11  C   UNL     1       9.423   3.738   0.510  0.00  0.00    +0.014 A 
ENDBRANCH   3   5
BRANCH   1  12
ATOM     12  C   UNL     1       4.616   3.900  -0.139  0.00  0.00    +0.089 C 
ATOM     13  C   UNL     1       4.249   5.151   0.625  0.00  0.00    +0.045 C 
ATOM     14  C   UNL     1       4.318   5.204  -0.868  0.00  0.00    +0.045 C 
BRANCH  12  15
ATOM     15  N   UNL     1       3.669   2.759  -0.311  0.00  0.00    -0.278 NA
ATOM     16  C   UNL     1       3.959   1.626   0.604  0.00  0.00    +0.114 C 
ATOM     17  C   UNL     1       3.040   0.427   0.318  0.00  0.00    +0.175 C 
ATOM     18  O   UNL     1       1.661   0.779   0.454  0.00  0.00    -0.377 OA
ATOM     19  C   UNL     1       1.343   1.854  -0.435  0.00  0.00    +0.175 C 
ATOM     20  C   UNL     1       2.229   3.080  -0.165  0.00  0.00    +0.114 C 
ENDBRANCH  12  15
ENDBRANCH   1  12
TORSDOF 3
