REMARK  Name = min_compound991.pdb
REMARK  6 active torsions:
REMARK  status: ('A' for Active; 'I' for Inactive)
REMARK    1  A    between atoms: _1  and  _7
REMARK    2  A    between atoms: _1  and  _20
REMARK    3  A    between atoms: _8  and  _20
REMARK    4  A    between atoms: _10  and  _22
REMARK    5  A    between atoms: _15  and  _24
REMARK    6  A    between atoms: _22  and  _24
REMARK                            x       y       z     vdW  Elec       q    Type
REMARK                         _______ _______ _______ _____ _____    ______ ____
ROOT
ATOM      1  C   UNL     1      -8.037  -2.811   0.484  0.00  0.00    +0.073 A 
ATOM      2  C   UNL     1      -9.339  -3.278   0.271  0.00  0.00    +0.016 A 
ATOM      3  C   UNL     1      -9.539  -4.529  -0.319  0.00  0.00    +0.001 A 
ATOM      4  C   UNL     1      -8.446  -5.313  -0.699  0.00  0.00    +0.001 A 
ATOM      5  C   UNL     1      -7.146  -4.856  -0.476  0.00  0.00    +0.016 A 
ATOM      6  C   UNL     1      -6.948  -3.604   0.118  0.00  0.00    +0.073 A 
ENDROOT
BRANCH   6   7
ATOM      7  C   UNL     1      -5.603  -3.202   0.526  0.00  0.00    +0.340 C 
ATOM      8  O   UNL     1      -5.339  -2.918   1.683  0.00  0.00    -0.245 OA
BRANCH   7   9
ATOM      9  O   UNL     1      -4.728  -3.233  -0.522  0.00  0.00    -0.458 OA
BRANCH   9  10
ATOM     10  C   UNL     1      -3.348  -3.000   0.000  0.00  0.00    +0.177 C 
ATOM     11  C   UNL     1      -2.095  -3.301  -0.933  0.00  0.00    +0.044 C 
ATOM     12  C   UNL     1      -0.750  -3.000   0.000  0.00  0.00    +0.004 C 
ATOM     13  C   UNL     1      -0.750  -1.500   0.000  0.00  0.00    +0.000 C 
ATOM     14  C   UNL     1      -1.945  -0.899  -0.633  0.00  0.00    +0.004 C 
ATOM     15  C   UNL     1      -3.348  -1.500   0.000  0.00  0.00    +0.044 C 
ENDBRANCH   9  10
ENDBRANCH   7   9
ENDBRANCH   6   7
BRANCH   1  16
ATOM     16  C   UNL     1      -7.856  -1.439   1.000  0.00  0.00    +0.340 C 
ATOM     17  O   UNL     1      -8.380  -0.985   1.998  0.00  0.00    -0.245 OA
BRANCH  16  18
ATOM     18  O   UNL     1      -7.245  -0.750   0.000  0.00  0.00    -0.458 OA
BRANCH  18  19
ATOM     19  C   UNL     1      -7.245   0.750   0.000  0.00  0.00    +0.177 C 
ATOM     20  C   UNL     1      -5.946   1.500   0.000  0.00  0.00    +0.044 C 
ATOM     21  C   UNL     1      -5.946   3.000   0.000  0.00  0.00    +0.004 C 
ATOM     22  C   UNL     1      -7.245   3.655   0.611  0.00  0.00    +0.000 C 
ATOM     23  C   UNL     1      -8.544   3.000   0.000  0.00  0.00    +0.004 C 
ATOM     24  C   UNL     1      -8.544   1.500   0.000  0.00  0.00    +0.044 C 
ENDBRANCH  18  19
ENDBRANCH  16  18
ENDBRANCH   1  16
TORSDOF 6
