REMARK  Name = min_compound91.pdb
REMARK  2 active torsions:
REMARK  status: ('A' for Active; 'I' for Inactive)
REMARK    1  A    between atoms: _6  and  _8
REMARK    2  A    between atoms: _7  and  _14
REMARK                            x       y       z     vdW  Elec       q    Type
REMARK                         _______ _______ _______ _____ _____    ______ ____
ROOT
ATOM      1  H   UNL     1       3.644   2.870   2.071  0.00  0.00    +0.211 HD
ATOM      2  N   UNL     1       3.960   1.974   1.728  0.00  0.00    -0.182 N 
ATOM      3  C   UNL     1       5.296   1.748   1.521  0.00  0.00    +0.285 A 
ATOM      4  C   UNL     1       5.425   0.704   0.498  0.00  0.00    +0.082 A 
ATOM      5  C   UNL     1       4.165   0.559   0.066  0.00  0.00    +0.220 A 
ATOM      6  O   UNL     1       6.198   2.344   2.081  0.00  0.00    -0.265 OA
ATOM      7  O   UNL     1       3.213   1.326   0.723  0.00  0.00    -0.362 OA
ENDROOT
BRANCH   4   8
ATOM      8  C   UNL     1       6.694   0.050   0.000  0.00  0.00    +0.029 C 
ATOM      9  C   UNL     1       6.694  -1.450   0.000  0.00  0.00    +0.008 C 
ATOM     10  C   UNL     1       8.002  -1.673   0.921  0.00  0.00    +0.001 C 
ATOM     11  C   UNL     1       9.292  -1.450   0.000  0.00  0.00    +0.000 C 
ATOM     12  C   UNL     1       9.292   0.050   0.000  0.00  0.00    +0.001 C 
ATOM     13  C   UNL     1       8.000   0.788   0.396  0.00  0.00    +0.008 C 
ENDBRANCH   4   8
BRANCH   5  14
ATOM     14  N   UNL     1       3.697  -0.265  -0.921  0.00  0.00    -0.327 N 
ATOM     15  H   UNL     1       4.280  -1.077  -1.098  0.00  0.00    +0.145 HD
ATOM     16  H   UNL     1       2.720  -0.506  -0.773  0.00  0.00    +0.145 HD
ENDBRANCH   5  14
TORSDOF 2
