REMARK  Name = min_compound92.pdb
REMARK  1 active torsions:
REMARK  status: ('A' for Active; 'I' for Inactive)
REMARK    1  A    between atoms: _12  and  _13
REMARK                            x       y       z     vdW  Elec       q    Type
REMARK                         _______ _______ _______ _____ _____    ______ ____
ROOT
ATOM      1  O   UNL     1      -0.710   5.984   0.000  0.00  0.00    -0.268 OA
ATOM      2  C   UNL     1       0.375   5.416   0.000  0.00  0.00    +0.255 A 
ATOM      3  C   UNL     1       1.626   6.203   0.000  0.00  0.00    +0.099 A 
ATOM      4  C   UNL     1       2.795   5.552   0.000  0.00  0.00    +0.094 A 
ATOM      5  N   UNL     1       2.815   4.181   0.000  0.00  0.00    -0.305 N 
ATOM      6  H   UNL     1       3.710   3.697   0.000  0.00  0.00    +0.170 HD
ATOM      7  C   UNL     1       1.700   3.394   0.000  0.00  0.00    +0.327 A 
ATOM      8  O   UNL     1       1.762   2.170   0.000  0.00  0.00    -0.247 OA
ATOM      9  N   UNL     1       0.510   4.061   0.000  0.00  0.00    -0.275 N 
ATOM     10  H   UNL     1      -0.329   3.502   0.000  0.00  0.00    +0.173 HD
ENDROOT
BRANCH   4  11
ATOM     11  C   UNL     1       4.062   6.191   0.000  0.00  0.00    +0.196 A 
ATOM     12  N   UNL     1       4.217   7.552   0.000  0.00  0.00    -0.238 N 
ATOM     13  H   UNL     1       3.531   8.295   0.000  0.00  0.00    +0.192 HD
ATOM     14  N   UNL     1       5.517   7.873   0.000  0.00  0.00    -0.046 NA
ATOM     15  N   UNL     1       6.158   6.715   0.000  0.00  0.00    -0.023 NA
ATOM     16  N   UNL     1       5.274   5.665   0.000  0.00  0.00    -0.107 NA
ENDBRANCH   4  11
TORSDOF 1
