REMARK  Name = min_compound956.pdb
REMARK  6 active torsions:
REMARK  status: ('A' for Active; 'I' for Inactive)
REMARK    1  A    between atoms: _4  and  _21
REMARK    2  A    between atoms: _5  and  _19
REMARK    3  A    between atoms: _7  and  _17
REMARK    4  A    between atoms: _8  and  _18
REMARK    5  A    between atoms: _19  and  _20
REMARK    6  A    between atoms: _21  and  _22
REMARK                            x       y       z     vdW  Elec       q    Type
REMARK                         _______ _______ _______ _____ _____    ______ ____
ROOT
ATOM      1  C   UNL     1      -4.385  -3.266   0.394  0.00  0.00    +0.029 C 
ATOM      2  C   UNL     1      -3.474  -2.469  -0.188  0.00  0.00    +0.014 C 
ENDROOT
BRANCH   1  12
ATOM      3  N   UNL     1      -3.126  -5.279   0.177  0.00  0.00    -0.255 NA
ATOM      4  C   UNL     1      -3.037  -6.618   0.091  0.00  0.00    +0.112 A 
ATOM      5  C   UNL     1      -4.132  -7.461   0.073  0.00  0.00    +0.028 A 
ATOM      6  C   UNL     1      -5.412  -6.905   0.142  0.00  0.00    -0.014 A 
ATOM      7  C   UNL     1      -6.548  -7.732   0.108  0.00  0.00    +0.008 A 
ATOM      8  C   UNL     1      -7.831  -7.190   0.160  0.00  0.00    +0.001 A 
ATOM      9  C   UNL     1      -7.997  -5.814   0.247  0.00  0.00    +0.001 A 
ATOM     10  C   UNL     1      -6.878  -4.979   0.286  0.00  0.00    +0.010 A 
ATOM     11  C   UNL     1      -5.560  -5.503   0.240  0.00  0.00    +0.008 A 
ATOM     12  C   UNL     1      -4.369  -4.734   0.260  0.00  0.00    +0.072 A 
ENDBRANCH   1  12
BRANCH   2  13
ATOM     13  C   UNL     1      -3.443  -0.999  -0.083  0.00  0.00    +0.020 A 
ATOM     14  C   UNL     1      -2.173  -0.395  -0.058  0.00  0.00    +0.012 A 
ATOM     15  C   UNL     1      -2.034   0.993  -0.005  0.00  0.00    +0.004 A 
ATOM     16  C   UNL     1      -3.165   1.803   0.038  0.00  0.00    +0.049 A 
ATOM     17  C   UNL     1      -4.436   1.229   0.032  0.00  0.00    +0.162 A 
ATOM     18  C   UNL     1      -4.579  -0.165  -0.079  0.00  0.00    +0.169 A 
BRANCH  17  19
ATOM     19  O   UNL     1      -5.485   2.113   0.068  0.00  0.00    -0.491 OA
ATOM     20  C   UNL     1      -6.403   1.833   1.124  0.00  0.00    +0.277 C 
ENDBRANCH  17  19
BRANCH  18  21
ATOM     21  O   UNL     1      -5.838  -0.713  -0.171  0.00  0.00    -0.491 OA
ATOM     22  C   UNL     1      -6.262  -0.722  -1.535  0.00  0.00    +0.277 C 
ENDBRANCH  18  21
ENDBRANCH   2  13
TORSDOF 4
