REMARK  Name = min_compound986.pdb
REMARK  4 active torsions:
REMARK  status: ('A' for Active; 'I' for Inactive)
REMARK    1  A    between atoms: _3  and  _16
REMARK    2  A    between atoms: _9  and  _17
REMARK    3  A    between atoms: _14  and  _21
REMARK    4  A    between atoms: _15  and  _18
REMARK                            x       y       z     vdW  Elec       q    Type
REMARK                         _______ _______ _______ _____ _____    ______ ____
ROOT
ATOM      1  C   UNL     1       1.296   4.117  -0.119  0.00  0.00    +0.002 A 
ATOM      2  C   UNL     1       2.493   4.829  -0.059  0.00  0.00    +0.026 A 
ATOM      3  C   UNL     1       3.694   4.103   0.026  0.00  0.00    +0.050 A 
ATOM      4  N   UNL     1       5.006   4.534   0.159  0.00  0.00    -0.342 N 
ATOM      5  C   UNL     1       5.324   5.878   0.593  0.00  0.00    +0.149 C 
ATOM      6  C   UNL     1       5.910   3.481   0.045  0.00  0.00    +0.061 A 
ATOM      7  C   UNL     1       7.370   3.426  -0.070  0.00  0.00    +0.051 A 
ATOM      8  C   UNL     1       8.208   4.563  -0.410  0.00  0.00    +0.127 A 
ATOM      9  C   UNL     1       9.586   4.289  -0.356  0.00  0.00    +0.049 A 
ATOM     10  C   UNL     1      10.139   3.032  -0.051  0.00  0.00    +0.049 A 
ATOM     11  C   UNL     1       9.380   1.884   0.203  0.00  0.00    +0.125 A 
ATOM     12  C   UNL     1       7.963   2.110   0.160  0.00  0.00    +0.029 A 
ATOM     13  C   UNL     1       7.116   1.003   0.328  0.00  0.00    +0.013 A 
ATOM     14  C   UNL     1       5.728   1.083   0.275  0.00  0.00    +0.011 A 
ATOM     15  C   UNL     1       5.109   2.333   0.142  0.00  0.00    +0.009 A 
ATOM     16  C   UNL     1       3.724   2.715   0.053  0.00  0.00    +0.011 A 
ATOM     17  C   UNL     1       2.499   1.992   0.000  0.00  0.00    -0.041 A 
ATOM     18  C   UNL     1       2.499   0.491   0.000  0.00  0.00    +0.044 C 
ATOM     19  C   UNL     1       1.295   2.727  -0.087  0.00  0.00    +0.004 A 
ENDROOT
BRANCH  11  20
ATOM     20  O   UNL     1       9.965   0.760   0.442  0.00  0.00    -0.506 OA
ATOM     21  H   UNL     1       9.454  -0.007   0.612  0.00  0.00    +0.292 HD
ENDBRANCH  11  20
BRANCH   8  22
ATOM     22  O   UNL     1       7.826   5.730  -0.787  0.00  0.00    -0.506 OA
ATOM     23  H   UNL     1       6.912   5.933  -0.830  0.00  0.00    +0.292 HD
ENDBRANCH   8  22
TORSDOF 2
