REMARK  Name = min_compound976.pdb
REMARK  3 active torsions:
REMARK  status: ('A' for Active; 'I' for Inactive)
REMARK    1  A    between atoms: _5  and  _18
REMARK    2  A    between atoms: _7  and  _19
REMARK    3  A    between atoms: _10  and  _15
REMARK                            x       y       z     vdW  Elec       q    Type
REMARK                         _______ _______ _______ _____ _____    ______ ____
ROOT
ATOM      1  N   UNL     1       3.899  -4.538   0.033  0.00  0.00    -0.269 N 
ATOM      2  H   UNL     1       3.000  -5.008   0.066  0.00  0.00    +0.156 HD
ATOM      3  C   UNL     1       4.896  -5.470  -0.001  0.00  0.00    +0.308 C 
ATOM      4  N   UNL     1       6.169  -5.052   0.214  0.00  0.00    -0.266 N 
ATOM      5  H   UNL     1       6.242  -4.138   0.630  0.00  0.00    +0.156 HD
ATOM      6  O   UNL     1       4.560  -6.640  -0.172  0.00  0.00    -0.252 OA
ENDROOT
BRANCH   1  12
ATOM      7 CL   UNL     1       6.154   0.023  -0.879  0.00  0.00    -0.082 Cl
ATOM      8  C   UNL     1       4.777  -0.919  -0.424  0.00  0.00    +0.061 A 
ATOM      9  C   UNL     1       3.554  -0.333  -0.081  0.00  0.00    +0.059 A 
ATOM     10  C   UNL     1       2.476  -1.148   0.260  0.00  0.00    +0.023 A 
ATOM     11  C   UNL     1       2.629  -2.537   0.283  0.00  0.00    +0.025 A 
ATOM     12  C   UNL     1       3.859  -3.135  -0.026  0.00  0.00    +0.036 A 
ATOM     13 CL   UNL     1       3.308   1.375  -0.073  0.00  0.00    -0.082 Cl
ATOM     14  C   UNL     1       4.922  -2.316  -0.413  0.00  0.00    +0.044 A 
ENDBRANCH   1  12
BRANCH   4  15
ATOM     15  C   UNL     1       7.390  -5.771   0.142  0.00  0.00    +0.077 A 
ATOM     16  C   UNL     1       7.576  -7.121  -0.196  0.00  0.00    +0.138 A 
ATOM     17  C   UNL     1       8.860  -7.678  -0.238  0.00  0.00    +0.047 A 
ATOM     18  C   UNL     1       9.981  -6.905   0.046  0.00  0.00    +0.004 A 
ATOM     19  C   UNL     1       9.821  -5.566   0.377  0.00  0.00    +0.002 A 
ATOM     20  C   UNL     1       8.539  -5.009   0.428  0.00  0.00    +0.027 A 
BRANCH  16  21
ATOM     21  O   UNL     1       6.589  -8.014  -0.496  0.00  0.00    -0.505 OA
ATOM     22  H   UNL     1       5.719  -7.581  -0.372  0.00  0.00    +0.292 HD
ENDBRANCH  16  21
ENDBRANCH   4  15
TORSDOF 3
