REMARK  Name = min_compound926.pdb
REMARK  6 active torsions:
REMARK  status: ('A' for Active; 'I' for Inactive)
REMARK    1  A    between atoms: _6  and  _8
REMARK    2  A    between atoms: _9  and  _15
REMARK    3  A    between atoms: _10  and  _16
REMARK    4  A    between atoms: _12  and  _19
REMARK    5  A    between atoms: _16  and  _17
REMARK    6  A    between atoms: _16  and  _18
REMARK                            x       y       z     vdW  Elec       q    Type
REMARK                         _______ _______ _______ _____ _____    ______ ____
ROOT
ATOM      1  C   UNL     1       5.354   2.389  -0.758  0.00  0.00    +0.244 C 
ATOM      2  N   UNL     1       6.000   3.348   0.000  0.00  0.00    -0.308 N 
ATOM      3  H   UNL     1       5.536   3.687   0.832  0.00  0.00    +0.149 HD
ATOM      4  O   UNL     1       5.936   1.671  -1.565  0.00  0.00    -0.270 OA
ENDROOT
BRANCH   2   5
ATOM      5  C   UNL     1       7.500   3.348   0.000  0.00  0.00    +0.077 C 
ATOM      6  C   UNL     1       7.790   2.351   1.204  0.00  0.00    +0.026 C 
ATOM      7  C   UNL     1       9.318   2.225   1.535  0.00  0.00    -0.012 C 
ATOM      8  C   UNL     1       9.752   0.754   1.432  0.00  0.00    +0.007 C 
ATOM      9  C   UNL     1      10.276   3.083   0.642  0.00  0.00    +0.004 C 
ATOM     10  C   UNL     1       9.750   4.647   0.000  0.00  0.00    +0.006 C 
ATOM     11  C   UNL     1       8.250   4.647   0.000  0.00  0.00    +0.012 C 
BRANCH  11  12
ATOM     12  C   UNL     1       7.500   5.946   0.000  0.00  0.00    -0.012 C 
ATOM     13  C   UNL     1       6.000   5.946   0.000  0.00  0.00    +0.007 C 
ATOM     14  C   UNL     1       8.016   6.933   1.089  0.00  0.00    +0.007 C 
ENDBRANCH  11  12
ENDBRANCH   2   5
BRANCH   1  18
ATOM     15  N   UNL     1       1.188   1.748  -0.051  0.00  0.00    -0.263 NA
ATOM     16  C   UNL     1       1.741   2.965   0.135  0.00  0.00    +0.111 A 
ATOM     17  C   UNL     1       3.080   3.242  -0.075  0.00  0.00    +0.033 A 
ATOM     18  C   UNL     1       3.902   2.202  -0.507  0.00  0.00    +0.040 A 
ATOM     19  C   UNL     1       3.353   0.939  -0.729  0.00  0.00    +0.033 A 
ATOM     20  C   UNL     1       2.003   0.764  -0.485  0.00  0.00    +0.111 A 
ENDBRANCH   1  18
TORSDOF 3
