REMARK  Name = min_compound919.pdb
REMARK  3 active torsions:
REMARK  status: ('A' for Active; 'I' for Inactive)
REMARK    1  A    between atoms: _1  and  _15
REMARK    2  A    between atoms: _2  and  _16
REMARK    3  A    between atoms: _6  and  _19
REMARK                            x       y       z     vdW  Elec       q    Type
REMARK                         _______ _______ _______ _____ _____    ______ ____
ROOT
ATOM      1  C   UNL     1       0.275   6.221   0.000  0.00  0.00    +0.027 A 
ATOM      2  C   UNL     1      -1.226   6.221   0.000  0.00  0.00    +0.051 C 
ATOM      3  C   UNL     1       1.154   5.119   0.048  0.00  0.00    +0.278 A 
ATOM      4  C   UNL     1       2.619   5.235  -0.008  0.00  0.00    +0.107 A 
ATOM      5  C   UNL     1       3.297   6.469  -0.114  0.00  0.00    +0.041 A 
ATOM      6  C   UNL     1       2.436   7.570  -0.157  0.00  0.00    +0.024 A 
ATOM      7  C   UNL     1       0.993   7.448  -0.105  0.00  0.00    +0.012 A 
ENDROOT
BRANCH   5   8
ATOM      8  N   UNL     1       4.774   6.527  -0.165  0.00  0.00    -0.269 N 
ATOM      9  H   UNL     1       5.249   5.638  -0.142  0.00  0.00    +0.156 HD
ATOM     10  C   UNL     1       5.586   7.673  -0.251  0.00  0.00    +0.306 C 
ATOM     11  N   UNL     1       7.030   7.513  -0.234  0.00  0.00    -0.285 N 
ATOM     12  C   UNL     1       7.774   6.221   0.000  0.00  0.00    +0.109 C 
ATOM     13  C   UNL     1       9.274   6.221   0.000  0.00  0.00    +0.019 C 
ATOM     14  C   UNL     1       9.433   7.520   0.938  0.00  0.00    +0.003 C 
ATOM     15  C   UNL     1       9.274   8.819   0.000  0.00  0.00    +0.019 C 
ATOM     16  C   UNL     1       7.774   8.819   0.000  0.00  0.00    +0.109 C 
ATOM     17  O   UNL     1       5.106   8.808  -0.314  0.00  0.00    -0.252 OA
ENDBRANCH   5   8
BRANCH   3  18
ATOM     18  N   UNL     1       0.607   3.762   0.159  0.00  0.00    +0.080 N 
ATOM     19  O   UNL     1       1.257   2.843  -0.360  0.00  0.00    +0.041 OA
ATOM     20  O   UNL     1      -0.457   3.613   0.776  0.00  0.00    -0.576 OA
ENDBRANCH   3  18
TORSDOF 2
