REMARK  Name = min_compound942.pdb
REMARK  3 active torsions:
REMARK  status: ('A' for Active; 'I' for Inactive)
REMARK    1  A    between atoms: _3  and  _12
REMARK    2  A    between atoms: _9  and  _13
REMARK    3  A    between atoms: _10  and  _14
REMARK                            x       y       z     vdW  Elec       q    Type
REMARK                         _______ _______ _______ _____ _____    ______ ____
ROOT
ATOM      1 CL   UNL     1      -4.159   2.726  -0.079  0.00  0.00    -0.076 Cl
ATOM      2  C   UNL     1      -2.651   1.843  -0.032  0.00  0.00    +0.126 A 
ATOM      3  C   UNL     1      -2.647   0.483  -0.026  0.00  0.00    +0.126 A 
ATOM      4  C   UNL     1      -3.863  -0.390  -0.067  0.00  0.00    +0.088 C 
ATOM      5  O   UNL     1      -1.476  -0.293   0.013  0.00  0.00    -0.440 OA
ATOM      6  C   UNL     1      -0.242   0.318   0.039  0.00  0.00    +0.234 A 
ATOM      7  N   UNL     1       1.015  -0.265   0.052  0.00  0.00    -0.199 N 
ATOM      8  N   UNL     1       2.034   0.867   0.045  0.00  0.00    -0.168 NA
ATOM      9  C   UNL     1       1.204   1.964   0.025  0.00  0.00    +0.075 A 
ATOM     10  C   UNL     1       1.899   3.287  -0.006  0.00  0.00    +0.068 C 
ATOM     11  C   UNL     1      -0.140   1.768   0.022  0.00  0.00    +0.108 A 
ATOM     12  C   UNL     1      -1.367   2.554   0.003  0.00  0.00    +0.214 A 
ATOM     13  O   UNL     1      -1.351   3.811   0.084  0.00  0.00    -0.285 OA
ENDROOT
BRANCH   7  14
ATOM     14  C   UNL     1       1.381  -1.633   0.060  0.00  0.00    +0.069 A 
ATOM     15  C   UNL     1       0.447  -2.677   0.089  0.00  0.00    +0.028 A 
ATOM     16  C   UNL     1       0.842  -4.023   0.094  0.00  0.00    +0.002 A 
ATOM     17  C   UNL     1       2.192  -4.356   0.070  0.00  0.00    +0.000 A 
ATOM     18  C   UNL     1       3.144  -3.342   0.043  0.00  0.00    +0.002 A 
ATOM     19  C   UNL     1       2.737  -2.003   0.038  0.00  0.00    +0.028 A 
ENDBRANCH   7  14
TORSDOF 1
