REMARK  Name = min_compound94.pdb
REMARK  4 active torsions:
REMARK  status: ('A' for Active; 'I' for Inactive)
REMARK    1  A    between atoms: _2  and  _10
REMARK    2  A    between atoms: _2  and  _11
REMARK    3  A    between atoms: _7  and  _13
REMARK    4  A    between atoms: _9  and  _12
REMARK                            x       y       z     vdW  Elec       q    Type
REMARK                         _______ _______ _______ _____ _____    ______ ____
ROOT
ATOM      1  N   UNL     1      -6.833  -1.195  -0.371  0.00  0.00    -0.286 NA
ATOM      2  C   UNL     1      -6.879   0.269  -0.300  0.00  0.00    +0.056 C 
ATOM      3  C   UNL     1      -7.901   0.732  -1.349  0.00  0.00    +0.036 C 
ATOM      4  C   UNL     1      -7.380   0.680   1.091  0.00  0.00    +0.036 C 
ATOM      5  C   UNL     1      -5.506   0.862  -0.644  0.00  0.00    +0.034 C 
ATOM      6  C   UNL     1      -4.434   0.363   0.316  0.00  0.00    +0.002 C 
ATOM      7  C   UNL     1      -4.533  -1.148   0.584  0.00  0.00    +0.064 C 
ATOM      8  C   UNL     1      -3.201  -1.735   0.101  0.00  0.00    +0.123 C 
ATOM      9  C   UNL     1      -2.217  -0.587   0.292  0.00  0.00    +0.032 C 
ATOM     10  C   UNL     1      -3.009   0.621  -0.190  0.00  0.00    +0.007 C 
ATOM     11  C   UNL     1      -5.766  -1.824   0.000  0.00  0.00    +0.017 C 
ATOM     12  C   UNL     1      -5.766  -3.324   0.000  0.00  0.00    +0.060 C 
ENDROOT
BRANCH   8  13
ATOM     13  O   UNL     1      -3.260  -2.080  -1.278  0.00  0.00    -0.391 OA
ATOM     14  H   UNL     1      -2.369  -2.357  -1.555  0.00  0.00    +0.210 HD
ENDBRANCH   8  13
TORSDOF 1
