REMARK  Name = min_compound93.pdb
REMARK  6 active torsions:
REMARK  status: ('A' for Active; 'I' for Inactive)
REMARK    1  A    between atoms: _3  and  _7
REMARK    2  A    between atoms: _7  and  _9
REMARK    3  A    between atoms: _9  and  _10
REMARK    4  A    between atoms: _10  and  _11
REMARK    5  A    between atoms: _11  and  _12
REMARK    6  A    between atoms: _12  and  _13
REMARK                            x       y       z     vdW  Elec       q    Type
REMARK                         _______ _______ _______ _____ _____    ______ ____
ROOT
ATOM      1  C   UNL     1       3.569   4.433  -0.705  0.00  0.00    +0.341 C 
ATOM      2  O   UNL     1       4.253   4.003  -1.620  0.00  0.00    -0.245 OA
ENDROOT
BRANCH   1   7
ATOM      3  N   UNL     1       0.269   3.799   1.017  0.00  0.00    -0.262 NA
ATOM      4  C   UNL     1       0.077   2.509   0.664  0.00  0.00    +0.111 A 
ATOM      5  C   UNL     1       0.965   1.784  -0.116  0.00  0.00    +0.020 A 
ATOM      6  C   UNL     1       2.120   2.420  -0.566  0.00  0.00    +0.018 A 
ATOM      7  C   UNL     1       2.354   3.752  -0.216  0.00  0.00    +0.077 A 
ATOM      8  C   UNL     1       1.405   4.393   0.569  0.00  0.00    +0.125 A 
ENDBRANCH   1   7
BRANCH   1   9
ATOM      9  O   UNL     1       3.810   5.553   0.019  0.00  0.00    -0.461 OA
BRANCH   9  10
ATOM     10  C   UNL     1       4.960   6.318  -0.375  0.00  0.00    +0.232 C 
BRANCH  10  11
ATOM     11  C   UNL     1       6.239   5.717   0.203  0.00  0.00    +0.041 C 
BRANCH  11  12
ATOM     12  C   UNL     1       7.455   6.583  -0.118  0.00  0.00    -0.000 C 
ATOM     13  C   UNL     1       8.744   5.941   0.369  0.00  0.00    +0.004 C 
ENDBRANCH  11  12
ENDBRANCH  10  11
ENDBRANCH   9  10
ENDBRANCH   1   9
TORSDOF 5
