REMARK  Name = min_compound933.pdb
REMARK  6 active torsions:
REMARK  status: ('A' for Active; 'I' for Inactive)
REMARK    1  A    between atoms: _2  and  _18
REMARK    2  A    between atoms: _11  and  _12
REMARK    3  A    between atoms: _17  and  _19
REMARK    4  A    between atoms: _19  and  _20
REMARK    5  A    between atoms: _19  and  _21
REMARK    6  A    between atoms: _19  and  _22
REMARK                            x       y       z     vdW  Elec       q    Type
REMARK                         _______ _______ _______ _____ _____    ______ ____
ROOT
ATOM      1  C   UNL     1       4.084   2.660  -0.077  0.00  0.00    +0.093 A 
ATOM      2  C   UNL     1       3.275   1.574   0.000  0.00  0.00    +0.020 A 
ATOM      3  C   UNL     1       1.774   1.574   0.000  0.00  0.00    +0.063 C 
ATOM      4  N   UNL     1       3.955   0.300   0.072  0.00  0.00    -0.343 N 
ATOM      5  H   UNL     1       3.338  -0.510   0.124  0.00  0.00    +0.167 HD
ATOM      6  C   UNL     1       5.338   0.132   0.079  0.00  0.00    +0.138 A 
ATOM      7  C   UNL     1       6.245  -0.930   0.144  0.00  0.00    +0.076 A 
ATOM      8  C   UNL     1       7.603  -0.384   0.097  0.00  0.00    +0.095 A 
ATOM      9  N   UNL     1       7.490   0.965   0.007  0.00  0.00    -0.162 NA
ATOM     10  N   UNL     1       6.132   1.254   0.001  0.00  0.00    -0.180 N 
ATOM     11  C   UNL     1       5.597   2.563  -0.080  0.00  0.00    +0.275 A 
ATOM     12  O   UNL     1       6.318   3.552  -0.147  0.00  0.00    -0.266 OA
ENDROOT
BRANCH   8  13
ATOM     13  C   UNL     1       8.986  -1.096   0.117  0.00  0.00    +0.002 A 
ATOM     14  C   UNL     1       9.196  -2.466   0.325  0.00  0.00    +0.010 A 
ATOM     15  C   UNL     1      10.532  -3.104   0.305  0.00  0.00    +0.005 A 
ATOM     16  C   UNL     1      11.796  -2.480   0.000  0.00  0.00    -0.042 A 
ATOM     17  C   UNL     1      11.531  -1.074  -0.060  0.00  0.00    +0.005 A 
ATOM     18  C   UNL     1      10.207  -0.419  -0.040  0.00  0.00    +0.010 A 
BRANCH  16  19
ATOM     19  C   UNL     1      13.095  -3.230   0.000  0.00  0.00    -0.013 C 
ATOM     20  C   UNL     1      14.394  -3.980   0.000  0.00  0.00    +0.015 C 
ATOM     21  C   UNL     1      13.835  -2.095  -1.005  0.00  0.00    +0.015 C 
ATOM     22  C   UNL     1      12.493  -4.330  -1.131  0.00  0.00    +0.015 C 
ENDBRANCH  16  19
ENDBRANCH   8  13
TORSDOF 2
