REMARK  Name = min_compound918.pdb
REMARK  2 active torsions:
REMARK  status: ('A' for Active; 'I' for Inactive)
REMARK    1  A    between atoms: _11  and  _13
REMARK    2  A    between atoms: _12  and  _14
REMARK                            x       y       z     vdW  Elec       q    Type
REMARK                         _______ _______ _______ _____ _____    ______ ____
ROOT
ATOM      1  C   UNL     1      -3.337   4.935   0.095  0.00  0.00    +0.000 C 
ATOM      2  C   UNL     1      -2.583   3.664   0.469  0.00  0.00    +0.000 C 
ATOM      3  C   UNL     1      -1.259   3.880   1.197  0.00  0.00    +0.004 C 
ATOM      4  C   UNL     1      -0.089   4.076   0.232  0.00  0.00    +0.048 C 
ATOM      5  C   UNL     1       0.000   5.443  -0.476  0.00  0.00    +0.129 C 
ATOM      6  N   UNL     1       1.032   5.303  -1.540  0.00  0.00    -0.238 NA
ATOM      7  C   UNL     1       1.965   6.109  -1.117  0.00  0.00    +0.169 C 
ATOM      8  N   UNL     1       1.762   6.780   0.071  0.00  0.00    -0.212 N 
ATOM      9  N   UNL     1       0.438   6.477   0.492  0.00  0.00    -0.207 NA
ATOM     10  H   UNL     1      -0.147   7.300   0.377  0.00  0.00    +0.147 HD
ATOM     11  C   UNL     1      -1.306   5.860  -1.194  0.00  0.00    +0.048 C 
ATOM     12  C   UNL     1      -2.502   6.151  -0.286  0.00  0.00    +0.004 C 
ENDROOT
BRANCH   8  13
ATOM     13  C   UNL     1       2.265   8.087   0.307  0.00  0.00    +0.052 A 
ATOM     14  C   UNL     1       3.533   8.241   0.887  0.00  0.00    +0.025 A 
ATOM     15  C   UNL     1       4.063   9.512   1.122  0.00  0.00    +0.002 A 
ATOM     16  C   UNL     1       3.330  10.647   0.782  0.00  0.00    +0.000 A 
ATOM     17  C   UNL     1       2.070  10.513   0.204  0.00  0.00    +0.002 A 
ATOM     18  C   UNL     1       1.541   9.242  -0.035  0.00  0.00    +0.025 A 
ENDBRANCH   8  13
BRANCH   7  19
ATOM     19  S   UNL     1       3.401   6.272  -2.088  0.00  0.00    -0.107 S 
ATOM     20  H   UNL     1       3.006   5.385  -3.010  0.00  0.00    +0.110 HD
ENDBRANCH   7  19
TORSDOF 2
