MODEL 1
REMARK VINA RESULT:      -7.2      0.000      0.000
REMARK  Name = min_compound945.pdb
REMARK  8 active torsions:
REMARK  status: ('A' for Active; 'I' for Inactive)
REMARK    1  A    between atoms: _1  and  _20
REMARK    2  A    between atoms: _2  and  _21
REMARK    3  A    between atoms: _4  and  _12
REMARK    4  A    between atoms: _10  and  _16
REMARK    5  A    between atoms: _12  and  _13
REMARK    6  A    between atoms: _13  and  _15
REMARK    7  A    between atoms: _16  and  _17
REMARK    8  A    between atoms: _17  and  _19
REMARK                            x       y       z     vdW  Elec       q    Type
REMARK                         _______ _______ _______ _____ _____    ______ ____
ROOT
ATOM      1  C   UNL     1     -15.038   4.428 -15.616  0.00  0.00    +0.100 C 
ATOM      2  C   UNL     1     -16.297   5.229 -15.463  0.00  0.00    +0.045 C 
ATOM      3  O   UNL     1     -14.566   3.855 -14.382  0.00  0.00    -0.361 OA
ATOM      4  C   UNL     1     -15.031   2.928 -15.381  0.00  0.00    +0.100 C 
ATOM      5  C   UNL     1     -16.280   2.198 -14.983  0.00  0.00    +0.045 C 
ATOM      6  C   UNL     1     -13.964   2.076 -16.009  0.00  0.00    +0.077 C 
ATOM      7  C   UNL     1     -12.705   2.808 -16.417  0.00  0.00    +0.005 A 
ATOM      8  C   UNL     1     -11.527   2.043 -16.635  0.00  0.00    +0.135 A 
ATOM      9  C   UNL     1     -10.365   2.734 -17.013  0.00  0.00    +0.050 A 
ATOM     10  C   UNL     1     -10.368   4.151 -17.228  0.00  0.00    +0.050 A 
ATOM     11  C   UNL     1     -11.534   4.918 -17.073  0.00  0.00    +0.135 A 
ATOM     12  C   UNL     1     -12.709   4.247 -16.638  0.00  0.00    +0.005 A 
ATOM     13  C   UNL     1     -13.975   5.057 -16.474  0.00  0.00    +0.077 C 
ENDROOT
BRANCH   8  14
ATOM     14  O   UNL     1     -11.551   0.568 -16.399  0.00  0.00    -0.426 OA
BRANCH  14  15
ATOM     15  C   UNL     1     -10.400  -0.241 -16.403  0.00  0.00    +0.309 C 
ATOM     16  C   UNL     1      -9.900  -1.008 -17.592  0.00  0.00    +0.136 C 
ATOM     17  O   UNL     1      -9.705  -0.338 -15.383  0.00  0.00    -0.251 OA
ENDBRANCH  14  15
ENDBRANCH   8  14
BRANCH  11  18
ATOM     18  O   UNL     1     -11.565   6.397 -17.285  0.00  0.00    -0.426 OA
BRANCH  18  19
ATOM     19  C   UNL     1     -12.116   7.013 -18.424  0.00  0.00    +0.309 C 
ATOM     20  C   UNL     1     -11.678   6.751 -19.835  0.00  0.00    +0.136 C 
ATOM     21  O   UNL     1     -13.014   7.856 -18.300  0.00  0.00    -0.251 OA
ENDBRANCH  18  19
ENDBRANCH  11  18
TORSDOF 4
ENDMDL
MODEL 2
REMARK VINA RESULT:      -6.9      1.298      5.173
REMARK  Name = min_compound945.pdb
REMARK  8 active torsions:
REMARK  status: ('A' for Active; 'I' for Inactive)
REMARK    1  A    between atoms: _1  and  _20
REMARK    2  A    between atoms: _2  and  _21
REMARK    3  A    between atoms: _4  and  _12
REMARK    4  A    between atoms: _10  and  _16
REMARK    5  A    between atoms: _12  and  _13
REMARK    6  A    between atoms: _13  and  _15
REMARK    7  A    between atoms: _16  and  _17
REMARK    8  A    between atoms: _17  and  _19
REMARK                            x       y       z     vdW  Elec       q    Type
REMARK                         _______ _______ _______ _____ _____    ______ ____
ROOT
ATOM      1  C   UNL     1     -15.173   3.096 -15.780  0.00  0.00    +0.100 C 
ATOM      2  C   UNL     1     -16.224   2.314 -15.047  0.00  0.00    +0.045 C 
ATOM      3  O   UNL     1     -15.345   3.093 -17.209  0.00  0.00    -0.361 OA
ATOM      4  C   UNL     1     -15.528   4.357 -16.545  0.00  0.00    +0.100 C 
ATOM      5  C   UNL     1     -16.941   4.861 -16.600  0.00  0.00    +0.045 C 
ATOM      6  C   UNL     1     -14.470   5.386 -16.827  0.00  0.00    +0.077 C 
ATOM      7  C   UNL     1     -13.044   4.884 -16.767  0.00  0.00    +0.005 A 
ATOM      8  C   UNL     1     -12.034   5.661 -17.398  0.00  0.00    +0.135 A 
ATOM      9  C   UNL     1     -10.715   5.184 -17.336  0.00  0.00    +0.050 A 
ATOM     10  C   UNL     1     -10.379   3.988 -16.619  0.00  0.00    +0.050 A 
ATOM     11  C   UNL     1     -11.354   3.236 -15.942  0.00  0.00    +0.135 A 
ATOM     12  C   UNL     1     -12.703   3.671 -16.037  0.00  0.00    +0.005 A 
ATOM     13  C   UNL     1     -13.763   2.878 -15.307  0.00  0.00    +0.077 C 
ENDROOT
BRANCH   8  14
ATOM     14  O   UNL     1     -12.413   6.899 -18.141  0.00  0.00    -0.426 OA
BRANCH  14  15
ATOM     15  C   UNL     1     -12.517   6.966 -19.543  0.00  0.00    +0.309 C 
ATOM     16  C   UNL     1     -11.365   7.207 -20.474  0.00  0.00    +0.136 C 
ATOM     17  O   UNL     1     -13.613   6.796 -20.094  0.00  0.00    -0.251 OA
ENDBRANCH  14  15
ENDBRANCH   8  14
BRANCH  11  18
ATOM     18  O   UNL     1     -11.033   1.984 -15.193  0.00  0.00    -0.426 OA
BRANCH  18  19
ATOM     19  C   UNL     1     -10.676   0.771 -15.812  0.00  0.00    +0.309 C 
ATOM     20  C   UNL     1     -11.533   0.026 -16.792  0.00  0.00    +0.136 C 
ATOM     21  O   UNL     1      -9.596   0.230 -15.540  0.00  0.00    -0.251 OA
ENDBRANCH  18  19
ENDBRANCH  11  18
TORSDOF 4
ENDMDL
MODEL 3
REMARK VINA RESULT:      -6.8      2.476      5.647
REMARK  Name = min_compound945.pdb
REMARK  8 active torsions:
REMARK  status: ('A' for Active; 'I' for Inactive)
REMARK    1  A    between atoms: _1  and  _20
REMARK    2  A    between atoms: _2  and  _21
REMARK    3  A    between atoms: _4  and  _12
REMARK    4  A    between atoms: _10  and  _16
REMARK    5  A    between atoms: _12  and  _13
REMARK    6  A    between atoms: _13  and  _15
REMARK    7  A    between atoms: _16  and  _17
REMARK    8  A    between atoms: _17  and  _19
REMARK                            x       y       z     vdW  Elec       q    Type
REMARK                         _______ _______ _______ _____ _____    ______ ____
ROOT
ATOM      1  C   UNL     1     -13.574   2.399 -19.995  0.00  0.00    +0.100 C 
ATOM      2  C   UNL     1     -13.788   1.831 -21.368  0.00  0.00    +0.045 C 
ATOM      3  O   UNL     1     -13.433   3.832 -19.980  0.00  0.00    -0.361 OA
ATOM      4  C   UNL     1     -14.613   3.298 -19.350  0.00  0.00    +0.100 C 
ATOM      5  C   UNL     1     -15.884   3.654 -20.065  0.00  0.00    +0.045 C 
ATOM      6  C   UNL     1     -14.658   3.438 -17.855  0.00  0.00    +0.077 C 
ATOM      7  C   UNL     1     -13.380   3.076 -17.130  0.00  0.00    +0.005 A 
ATOM      8  C   UNL     1     -13.207   3.551 -15.802  0.00  0.00    +0.135 A 
ATOM      9  C   UNL     1     -12.017   3.208 -15.140  0.00  0.00    +0.050 A 
ATOM     10  C   UNL     1     -11.032   2.365 -15.751  0.00  0.00    +0.050 A 
ATOM     11  C   UNL     1     -11.209   1.839 -17.041  0.00  0.00    +0.135 A 
ATOM     12  C   UNL     1     -12.381   2.217 -17.750  0.00  0.00    +0.005 A 
ATOM     13  C   UNL     1     -12.591   1.653 -19.137  0.00  0.00    +0.077 C 
ENDROOT
BRANCH   8  14
ATOM     14  O   UNL     1     -14.248   4.431 -15.192  0.00  0.00    -0.426 OA
BRANCH  14  15
ATOM     15  C   UNL     1     -15.106   4.021 -14.154  0.00  0.00    +0.309 C 
ATOM     16  C   UNL     1     -16.138   2.940 -14.278  0.00  0.00    +0.136 C 
ATOM     17  O   UNL     1     -15.022   4.544 -13.035  0.00  0.00    -0.251 OA
ENDBRANCH  14  15
ENDBRANCH   8  14
BRANCH  11  18
ATOM     18  O   UNL     1     -10.196   0.963 -17.704  0.00  0.00    -0.426 OA
BRANCH  18  19
ATOM     19  C   UNL     1      -9.887  -0.341 -17.272  0.00  0.00    +0.309 C 
ATOM     20  C   UNL     1      -9.846  -0.780 -15.839  0.00  0.00    +0.136 C 
ATOM     21  O   UNL     1      -9.597  -1.216 -18.099  0.00  0.00    -0.251 OA
ENDBRANCH  18  19
ENDBRANCH  11  18
TORSDOF 4
ENDMDL
MODEL 4
REMARK VINA RESULT:      -6.5      1.444      1.681
REMARK  Name = min_compound945.pdb
REMARK  8 active torsions:
REMARK  status: ('A' for Active; 'I' for Inactive)
REMARK    1  A    between atoms: _1  and  _20
REMARK    2  A    between atoms: _2  and  _21
REMARK    3  A    between atoms: _4  and  _12
REMARK    4  A    between atoms: _10  and  _16
REMARK    5  A    between atoms: _12  and  _13
REMARK    6  A    between atoms: _13  and  _15
REMARK    7  A    between atoms: _16  and  _17
REMARK    8  A    between atoms: _17  and  _19
REMARK                            x       y       z     vdW  Elec       q    Type
REMARK                         _______ _______ _______ _____ _____    ______ ____
ROOT
ATOM      1  C   UNL     1     -16.011   4.665 -15.742  0.00  0.00    +0.100 C 
ATOM      2  C   UNL     1     -17.480   4.965 -15.821  0.00  0.00    +0.045 C 
ATOM      3  O   UNL     1     -15.468   4.797 -14.415  0.00  0.00    -0.361 OA
ATOM      4  C   UNL     1     -15.499   3.466 -14.965  0.00  0.00    +0.100 C 
ATOM      5  C   UNL     1     -16.441   2.545 -14.246  0.00  0.00    +0.045 C 
ATOM      6  C   UNL     1     -14.155   2.879 -15.293  0.00  0.00    +0.077 C 
ATOM      7  C   UNL     1     -13.204   3.803 -16.022  0.00  0.00    +0.005 A 
ATOM      8  C   UNL     1     -11.819   3.481 -16.010  0.00  0.00    +0.135 A 
ATOM      9  C   UNL     1     -10.947   4.346 -16.690  0.00  0.00    +0.050 A 
ATOM     10  C   UNL     1     -11.429   5.483 -17.418  0.00  0.00    +0.050 A 
ATOM     11  C   UNL     1     -12.798   5.787 -17.489  0.00  0.00    +0.135 A 
ATOM     12  C   UNL     1     -13.694   4.955 -16.764  0.00  0.00    +0.005 A 
ATOM     13  C   UNL     1     -15.172   5.264 -16.836  0.00  0.00    +0.077 C 
ENDROOT
BRANCH   8  14
ATOM     14  O   UNL     1     -11.344   2.293 -15.240  0.00  0.00    -0.426 OA
BRANCH  14  15
ATOM     15  C   UNL     1     -10.823   1.132 -15.840  0.00  0.00    +0.309 C 
ATOM     16  C   UNL     1     -11.414   0.453 -17.040  0.00  0.00    +0.136 C 
ATOM     17  O   UNL     1      -9.791   0.612 -15.396  0.00  0.00    -0.251 OA
ENDBRANCH  14  15
ENDBRANCH   8  14
BRANCH  11  18
ATOM     18  O   UNL     1     -13.328   6.968 -18.236  0.00  0.00    -0.426 OA
BRANCH  18  19
ATOM     19  C   UNL     1     -13.594   6.965 -19.618  0.00  0.00    +0.309 C 
ATOM     20  C   UNL     1     -14.965   7.007 -20.225  0.00  0.00    +0.136 C 
ATOM     21  O   UNL     1     -12.661   6.897 -20.429  0.00  0.00    -0.251 OA
ENDBRANCH  18  19
ENDBRANCH  11  18
TORSDOF 4
ENDMDL
MODEL 5
REMARK VINA RESULT:      -6.4      2.780      3.669
REMARK  Name = min_compound945.pdb
REMARK  8 active torsions:
REMARK  status: ('A' for Active; 'I' for Inactive)
REMARK    1  A    between atoms: _1  and  _20
REMARK    2  A    between atoms: _2  and  _21
REMARK    3  A    between atoms: _4  and  _12
REMARK    4  A    between atoms: _10  and  _16
REMARK    5  A    between atoms: _12  and  _13
REMARK    6  A    between atoms: _13  and  _15
REMARK    7  A    between atoms: _16  and  _17
REMARK    8  A    between atoms: _17  and  _19
REMARK                            x       y       z     vdW  Elec       q    Type
REMARK                         _______ _______ _______ _____ _____    ______ ____
ROOT
ATOM      1  C   UNL     1     -13.960   3.905 -20.801  0.00  0.00    +0.100 C 
ATOM      2  C   UNL     1     -14.296   4.600 -22.088  0.00  0.00    +0.045 C 
ATOM      3  O   UNL     1     -15.017   3.061 -20.309  0.00  0.00    -0.361 OA
ATOM      4  C   UNL     1     -13.817   2.395 -20.742  0.00  0.00    +0.100 C 
ATOM      5  C   UNL     1     -14.013   1.547 -21.965  0.00  0.00    +0.045 C 
ATOM      6  C   UNL     1     -13.007   1.761 -19.647  0.00  0.00    +0.077 C 
ATOM      7  C   UNL     1     -12.802   2.613 -18.414  0.00  0.00    +0.005 A 
ATOM      8  C   UNL     1     -12.411   1.966 -17.210  0.00  0.00    +0.135 A 
ATOM      9  C   UNL     1     -12.224   2.768 -16.074  0.00  0.00    +0.050 A 
ATOM     10  C   UNL     1     -12.366   4.194 -16.126  0.00  0.00    +0.050 A 
ATOM     11  C   UNL     1     -12.697   4.859 -17.318  0.00  0.00    +0.135 A 
ATOM     12  C   UNL     1     -12.943   4.062 -18.469  0.00  0.00    +0.005 A 
ATOM     13  C   UNL     1     -13.292   4.762 -19.762  0.00  0.00    +0.077 C 
ENDROOT
BRANCH   8  14
ATOM     14  O   UNL     1     -12.275   0.479 -17.183  0.00  0.00    -0.426 OA
BRANCH  14  15
ATOM     15  C   UNL     1     -11.077  -0.189 -16.870  0.00  0.00    +0.309 C 
ATOM     16  C   UNL     1      -9.717   0.230 -17.343  0.00  0.00    +0.136 C 
ATOM     17  O   UNL     1     -11.095  -1.183 -16.133  0.00  0.00    -0.251 OA
ENDBRANCH  14  15
ENDBRANCH   8  14
BRANCH  11  18
ATOM     18  O   UNL     1     -12.857   6.343 -17.400  0.00  0.00    -0.426 OA
BRANCH  18  19
ATOM     19  C   UNL     1     -14.070   7.014 -17.155  0.00  0.00    +0.309 C 
ATOM     20  C   UNL     1     -15.256   6.411 -16.462  0.00  0.00    +0.136 C 
ATOM     21  O   UNL     1     -14.223   8.180 -17.542  0.00  0.00    -0.251 OA
ENDBRANCH  18  19
ENDBRANCH  11  18
TORSDOF 4
ENDMDL
MODEL 6
REMARK VINA RESULT:      -6.4      2.944      6.181
REMARK  Name = min_compound945.pdb
REMARK  8 active torsions:
REMARK  status: ('A' for Active; 'I' for Inactive)
REMARK    1  A    between atoms: _1  and  _20
REMARK    2  A    between atoms: _2  and  _21
REMARK    3  A    between atoms: _4  and  _12
REMARK    4  A    between atoms: _10  and  _16
REMARK    5  A    between atoms: _12  and  _13
REMARK    6  A    between atoms: _13  and  _15
REMARK    7  A    between atoms: _16  and  _17
REMARK    8  A    between atoms: _17  and  _19
REMARK                            x       y       z     vdW  Elec       q    Type
REMARK                         _______ _______ _______ _____ _____    ______ ____
ROOT
ATOM      1  C   UNL     1     -13.719   2.357 -20.557  0.00  0.00    +0.100 C 
ATOM      2  C   UNL     1     -13.660   1.597 -21.849  0.00  0.00    +0.045 C 
ATOM      3  O   UNL     1     -13.481   3.769 -20.707  0.00  0.00    -0.361 OA
ATOM      4  C   UNL     1     -14.808   3.384 -20.302  0.00  0.00    +0.100 C 
ATOM      5  C   UNL     1     -15.856   3.677 -21.335  0.00  0.00    +0.045 C 
ATOM      6  C   UNL     1     -15.177   3.751 -18.893  0.00  0.00    +0.077 C 
ATOM      7  C   UNL     1     -14.126   3.452 -17.847  0.00  0.00    +0.005 A 
ATOM      8  C   UNL     1     -14.220   4.115 -16.594  0.00  0.00    +0.135 A 
ATOM      9  C   UNL     1     -13.239   3.829 -15.632  0.00  0.00    +0.050 A 
ATOM     10  C   UNL     1     -12.206   2.865 -15.874  0.00  0.00    +0.050 A 
ATOM     11  C   UNL     1     -12.126   2.157 -17.084  0.00  0.00    +0.135 A 
ATOM     12  C   UNL     1     -13.078   2.470 -18.092  0.00  0.00    +0.005 A 
ATOM     13  C   UNL     1     -13.012   1.711 -19.398  0.00  0.00    +0.077 C 
ENDROOT
BRANCH   8  14
ATOM     14  O   UNL     1     -15.304   5.118 -16.371  0.00  0.00    -0.426 OA
BRANCH  14  15
ATOM     15  C   UNL     1     -15.224   6.459 -16.791  0.00  0.00    +0.309 C 
ATOM     16  C   UNL     1     -13.963   7.142 -17.231  0.00  0.00    +0.136 C 
ATOM     17  O   UNL     1     -16.246   7.157 -16.840  0.00  0.00    -0.251 OA
ENDBRANCH  14  15
ENDBRANCH   8  14
BRANCH  11  18
ATOM     18  O   UNL     1     -11.058   1.151 -17.365  0.00  0.00    -0.426 OA
BRANCH  18  19
ATOM     19  C   UNL     1     -10.993  -0.114 -16.751  0.00  0.00    +0.309 C 
ATOM     20  C   UNL     1      -9.742  -0.741 -16.212  0.00  0.00    +0.136 C 
ATOM     21  O   UNL     1     -12.015  -0.806 -16.648  0.00  0.00    -0.251 OA
ENDBRANCH  18  19
ENDBRANCH  11  18
TORSDOF 4
ENDMDL
MODEL 7
REMARK VINA RESULT:      -6.2      2.179      5.267
REMARK  Name = min_compound945.pdb
REMARK  8 active torsions:
REMARK  status: ('A' for Active; 'I' for Inactive)
REMARK    1  A    between atoms: _1  and  _20
REMARK    2  A    between atoms: _2  and  _21
REMARK    3  A    between atoms: _4  and  _12
REMARK    4  A    between atoms: _10  and  _16
REMARK    5  A    between atoms: _12  and  _13
REMARK    6  A    between atoms: _13  and  _15
REMARK    7  A    between atoms: _16  and  _17
REMARK    8  A    between atoms: _17  and  _19
REMARK                            x       y       z     vdW  Elec       q    Type
REMARK                         _______ _______ _______ _____ _____    ______ ____
ROOT
ATOM      1  C   UNL     1     -15.036   6.929 -16.215  0.00  0.00    +0.100 C 
ATOM      2  C   UNL     1     -15.126   8.418 -16.057  0.00  0.00    +0.045 C 
ATOM      3  O   UNL     1     -15.359   6.470 -17.540  0.00  0.00    -0.361 OA
ATOM      4  C   UNL     1     -13.992   6.300 -17.120  0.00  0.00    +0.100 C 
ATOM      5  C   UNL     1     -13.021   7.145 -17.890  0.00  0.00    +0.045 C 
ATOM      6  C   UNL     1     -13.565   4.877 -16.895  0.00  0.00    +0.077 C 
ATOM      7  C   UNL     1     -14.539   4.022 -16.114  0.00  0.00    +0.005 A 
ATOM      8  C   UNL     1     -14.410   2.609 -16.204  0.00  0.00    +0.135 A 
ATOM      9  C   UNL     1     -15.319   1.827 -15.474  0.00  0.00    +0.050 A 
ATOM     10  C   UNL     1     -16.311   2.420 -14.625  0.00  0.00    +0.050 A 
ATOM     11  C   UNL     1     -16.419   3.813 -14.479  0.00  0.00    +0.135 A 
ATOM     12  C   UNL     1     -15.543   4.625 -15.249  0.00  0.00    +0.005 A 
ATOM     13  C   UNL     1     -15.641   6.126 -15.097  0.00  0.00    +0.077 C 
ENDROOT
BRANCH   8  14
ATOM     14  O   UNL     1     -13.371   2.019 -17.100  0.00  0.00    -0.426 OA
BRANCH  14  15
ATOM     15  C   UNL     1     -12.285   1.254 -16.636  0.00  0.00    +0.309 C 
ATOM     16  C   UNL     1     -11.166   1.785 -15.789  0.00  0.00    +0.136 C 
ATOM     17  O   UNL     1     -12.218   0.046 -16.901  0.00  0.00    -0.251 OA
ENDBRANCH  14  15
ENDBRANCH   8  14
BRANCH  11  18
ATOM     18  O   UNL     1     -17.446   4.458 -13.605  0.00  0.00    -0.426 OA
BRANCH  18  19
ATOM     19  C   UNL     1     -17.376   4.477 -12.199  0.00  0.00    +0.309 C 
ATOM     20  C   UNL     1     -17.510   3.269 -11.319  0.00  0.00    +0.136 C 
ATOM     21  O   UNL     1     -17.217   5.549 -11.600  0.00  0.00    -0.251 OA
ENDBRANCH  18  19
ENDBRANCH  11  18
TORSDOF 4
ENDMDL
MODEL 8
REMARK VINA RESULT:      -6.1     11.721     13.651
REMARK  Name = min_compound945.pdb
REMARK  8 active torsions:
REMARK  status: ('A' for Active; 'I' for Inactive)
REMARK    1  A    between atoms: _1  and  _20
REMARK    2  A    between atoms: _2  and  _21
REMARK    3  A    between atoms: _4  and  _12
REMARK    4  A    between atoms: _10  and  _16
REMARK    5  A    between atoms: _12  and  _13
REMARK    6  A    between atoms: _13  and  _15
REMARK    7  A    between atoms: _16  and  _17
REMARK    8  A    between atoms: _17  and  _19
REMARK                            x       y       z     vdW  Elec       q    Type
REMARK                         _______ _______ _______ _____ _____    ______ ____
ROOT
ATOM      1  C   UNL     1     -15.139   0.599  -5.120  0.00  0.00    +0.100 C 
ATOM      2  C   UNL     1     -14.183  -0.508  -5.454  0.00  0.00    +0.045 C 
ATOM      3  O   UNL     1     -15.663   0.524  -3.781  0.00  0.00    -0.361 OA
ATOM      4  C   UNL     1     -14.796   1.638  -4.068  0.00  0.00    +0.100 C 
ATOM      5  C   UNL     1     -13.495   1.589  -3.323  0.00  0.00    +0.045 C 
ATOM      6  C   UNL     1     -15.470   2.981  -4.094  0.00  0.00    +0.077 C 
ATOM      7  C   UNL     1     -16.780   3.036  -4.848  0.00  0.00    +0.005 A 
ATOM      8  C   UNL     1     -17.656   4.125  -4.588  0.00  0.00    +0.135 A 
ATOM      9  C   UNL     1     -18.869   4.165  -5.294  0.00  0.00    +0.050 A 
ATOM     10  C   UNL     1     -19.197   3.180  -6.283  0.00  0.00    +0.050 A 
ATOM     11  C   UNL     1     -18.321   2.128  -6.595  0.00  0.00    +0.135 A 
ATOM     12  C   UNL     1     -17.112   2.038  -5.854  0.00  0.00    +0.005 A 
ATOM     13  C   UNL     1     -16.154   0.916  -6.184  0.00  0.00    +0.077 C 
ENDROOT
BRANCH   8  14
ATOM     14  O   UNL     1     -17.291   5.134  -3.549  0.00  0.00    -0.426 OA
BRANCH  14  15
ATOM     15  C   UNL     1     -16.943   6.465  -3.844  0.00  0.00    +0.309 C 
ATOM     16  C   UNL     1     -17.926   7.566  -4.111  0.00  0.00    +0.136 C 
ATOM     17  O   UNL     1     -15.752   6.805  -3.871  0.00  0.00    -0.251 OA
ENDBRANCH  14  15
ENDBRANCH   8  14
BRANCH  11  18
ATOM     18  O   UNL     1     -18.640   1.085  -7.617  0.00  0.00    -0.426 OA
BRANCH  18  19
ATOM     19  C   UNL     1     -19.617   0.087  -7.438  0.00  0.00    +0.309 C 
ATOM     20  C   UNL     1     -19.910  -0.599  -6.137  0.00  0.00    +0.136 C 
ATOM     21  O   UNL     1     -20.291  -0.301  -8.401  0.00  0.00    -0.251 OA
ENDBRANCH  18  19
ENDBRANCH  11  18
TORSDOF 4
ENDMDL
MODEL 9
REMARK VINA RESULT:      -6.0      9.167     11.436
REMARK  Name = min_compound945.pdb
REMARK  8 active torsions:
REMARK  status: ('A' for Active; 'I' for Inactive)
REMARK    1  A    between atoms: _1  and  _20
REMARK    2  A    between atoms: _2  and  _21
REMARK    3  A    between atoms: _4  and  _12
REMARK    4  A    between atoms: _10  and  _16
REMARK    5  A    between atoms: _12  and  _13
REMARK    6  A    between atoms: _13  and  _15
REMARK    7  A    between atoms: _16  and  _17
REMARK    8  A    between atoms: _17  and  _19
REMARK                            x       y       z     vdW  Elec       q    Type
REMARK                         _______ _______ _______ _____ _____    ______ ____
ROOT
ATOM      1  C   UNL     1     -19.416   0.242  -6.833  0.00  0.00    +0.100 C 
ATOM      2  C   UNL     1     -20.845   0.193  -7.287  0.00  0.00    +0.045 C 
ATOM      3  O   UNL     1     -19.244   0.846  -5.537  0.00  0.00    -0.361 OA
ATOM      4  C   UNL     1     -18.949  -0.560  -5.631  0.00  0.00    +0.100 C 
ATOM      5  C   UNL     1     -19.901  -1.423  -4.856  0.00  0.00    +0.045 C 
ATOM      6  C   UNL     1     -17.497  -0.920  -5.488  0.00  0.00    +0.077 C 
ATOM      7  C   UNL     1     -16.534  -0.056  -6.273  0.00  0.00    +0.005 A 
ATOM      8  C   UNL     1     -15.165  -0.064  -5.891  0.00  0.00    +0.135 A 
ATOM      9  C   UNL     1     -14.282   0.742  -6.626  0.00  0.00    +0.050 A 
ATOM     10  C   UNL     1     -14.722   1.506  -7.757  0.00  0.00    +0.050 A 
ATOM     11  C   UNL     1     -16.060   1.484  -8.185  0.00  0.00    +0.135 A 
ATOM     12  C   UNL     1     -16.982   0.717  -7.422  0.00  0.00    +0.005 A 
ATOM     13  C   UNL     1     -18.424   0.676  -7.875  0.00  0.00    +0.077 C 
ENDROOT
BRANCH   8  14
ATOM     14  O   UNL     1     -14.735  -0.865  -4.706  0.00  0.00    -0.426 OA
BRANCH  14  15
ATOM     15  C   UNL     1     -14.370  -0.297  -3.471  0.00  0.00    +0.309 C 
ATOM     16  C   UNL     1     -13.719   1.044  -3.307  0.00  0.00    +0.136 C 
ATOM     17  O   UNL     1     -14.607  -0.901  -2.416  0.00  0.00    -0.251 OA
ENDBRANCH  14  15
ENDBRANCH   8  14
BRANCH  11  18
ATOM     18  O   UNL     1     -16.548   2.274  -9.356  0.00  0.00    -0.426 OA
BRANCH  18  19
ATOM     19  C   UNL     1     -16.343   3.659  -9.505  0.00  0.00    +0.309 C 
ATOM     20  C   UNL     1     -15.616   4.298 -10.651  0.00  0.00    +0.136 C 
ATOM     21  O   UNL     1     -16.755   4.443  -8.640  0.00  0.00    -0.251 OA
ENDBRANCH  18  19
ENDBRANCH  11  18
TORSDOF 4
ENDMDL
