MODEL 1
REMARK VINA RESULT:      -5.2      0.000      0.000
REMARK  Name = min_compound98.pdb
REMARK  3 active torsions:
REMARK  status: ('A' for Active; 'I' for Inactive)
REMARK    1  A    between atoms: _4  and  _10
REMARK    2  A    between atoms: _8  and  _11
REMARK    3  A    between atoms: _13  and  _14
REMARK                            x       y       z     vdW  Elec       q    Type
REMARK                         _______ _______ _______ _____ _____    ______ ____
ROOT
ATOM      1  O   UNL     1     -11.908  -1.003 -16.643  0.00  0.00    -0.245 OA
ATOM      2  C   UNL     1     -11.725   0.213 -16.665  0.00  0.00    +0.345 A 
ATOM      3  N   UNL     1     -10.505   0.823 -16.937  0.00  0.00    -0.217 N 
ATOM      4  C   UNL     1      -9.319  -0.034 -17.268  0.00  0.00    +0.178 C 
ATOM      5  N   UNL     1     -10.333   2.188 -17.056  0.00  0.00    -0.157 NA
ATOM      6  C   UNL     1     -11.336   2.981 -16.796  0.00  0.00    +0.210 A 
ATOM      7  C   UNL     1     -12.673   2.408 -16.387  0.00  0.00    +0.285 A 
ATOM      8  O   UNL     1     -13.598   3.145 -16.069  0.00  0.00    -0.265 OA
ATOM      9  N   UNL     1     -12.766   1.051 -16.403  0.00  0.00    -0.272 N 
ATOM     10  H   UNL     1     -13.644   0.622 -16.159  0.00  0.00    +0.174 HD
ENDROOT
BRANCH   6  11
ATOM     11  C   UNL     1     -11.091   4.490 -16.927  0.00  0.00    +0.269 C 
ATOM     12  N   UNL     1     -11.936   5.173 -17.779  0.00  0.00    -0.313 N 
ATOM     13  H   UNL     1     -12.736   4.682 -18.178  0.00  0.00    +0.149 HD
ATOM     14  C   UNL     1     -11.875   6.605 -17.913  0.00  0.00    +0.128 C 
ATOM     15  O   UNL     1     -10.193   5.024 -16.289  0.00  0.00    -0.268 OA
ENDBRANCH   6  11
TORSDOF 1
ENDMDL
MODEL 2
REMARK VINA RESULT:      -5.2      1.513      2.475
REMARK  Name = min_compound98.pdb
REMARK  3 active torsions:
REMARK  status: ('A' for Active; 'I' for Inactive)
REMARK    1  A    between atoms: _4  and  _10
REMARK    2  A    between atoms: _8  and  _11
REMARK    3  A    between atoms: _13  and  _14
REMARK                            x       y       z     vdW  Elec       q    Type
REMARK                         _______ _______ _______ _____ _____    ______ ____
ROOT
ATOM      1  O   UNL     1      -9.898   0.394 -15.261  0.00  0.00    -0.245 OA
ATOM      2  C   UNL     1     -10.465   1.379 -15.732  0.00  0.00    +0.345 A 
ATOM      3  N   UNL     1     -11.639   1.331 -16.476  0.00  0.00    -0.217 N 
ATOM      4  C   UNL     1     -12.305   0.007 -16.707  0.00  0.00    +0.178 C 
ATOM      5  N   UNL     1     -12.321   2.450 -16.916  0.00  0.00    -0.157 NA
ATOM      6  C   UNL     1     -11.796   3.629 -16.728  0.00  0.00    +0.210 A 
ATOM      7  C   UNL     1     -10.468   3.769 -16.023  0.00  0.00    +0.285 A 
ATOM      8  O   UNL     1      -9.932   4.863 -15.907  0.00  0.00    -0.265 OA
ATOM      9  N   UNL     1      -9.932   2.616 -15.536  0.00  0.00    -0.272 N 
ATOM     10  H   UNL     1      -9.057   2.661 -15.038  0.00  0.00    +0.174 HD
ENDROOT
BRANCH   6  11
ATOM     11  C   UNL     1     -12.583   4.839 -17.249  0.00  0.00    +0.269 C 
ATOM     12  N   UNL     1     -11.833   5.915 -17.679  0.00  0.00    -0.313 N 
ATOM     13  H   UNL     1     -10.820   5.815 -17.744  0.00  0.00    +0.149 HD
ATOM     14  C   UNL     1     -12.447   7.070 -18.282  0.00  0.00    +0.128 C 
ATOM     15  O   UNL     1     -13.807   4.812 -17.274  0.00  0.00    -0.268 OA
ENDBRANCH   6  11
TORSDOF 1
ENDMDL
MODEL 3
REMARK VINA RESULT:      -4.9      2.169      4.784
REMARK  Name = min_compound98.pdb
REMARK  3 active torsions:
REMARK  status: ('A' for Active; 'I' for Inactive)
REMARK    1  A    between atoms: _4  and  _10
REMARK    2  A    between atoms: _8  and  _11
REMARK    3  A    between atoms: _13  and  _14
REMARK                            x       y       z     vdW  Elec       q    Type
REMARK                         _______ _______ _______ _____ _____    ______ ____
ROOT
ATOM      1  O   UNL     1     -13.171   5.067 -19.041  0.00  0.00    -0.245 OA
ATOM      2  C   UNL     1     -12.829   4.009 -18.516  0.00  0.00    +0.345 A 
ATOM      3  N   UNL     1     -13.192   2.747 -18.975  0.00  0.00    -0.217 N 
ATOM      4  C   UNL     1     -14.026   2.634 -20.217  0.00  0.00    +0.178 C 
ATOM      5  N   UNL     1     -12.723   1.564 -18.437  0.00  0.00    -0.157 NA
ATOM      6  C   UNL     1     -11.980   1.604 -17.366  0.00  0.00    +0.210 A 
ATOM      7  C   UNL     1     -11.624   2.929 -16.734  0.00  0.00    +0.285 A 
ATOM      8  O   UNL     1     -10.990   2.973 -15.687  0.00  0.00    -0.265 OA
ATOM      9  N   UNL     1     -12.047   4.036 -17.402  0.00  0.00    -0.272 N 
ATOM     10  H   UNL     1     -11.815   4.944 -17.031  0.00  0.00    +0.174 HD
ENDROOT
BRANCH   6  11
ATOM     11  C   UNL     1     -11.496   0.264 -16.796  0.00  0.00    +0.269 C 
ATOM     12  N   UNL     1     -10.151   0.176 -16.502  0.00  0.00    -0.313 N 
ATOM     13  H   UNL     1      -9.578   1.018 -16.559  0.00  0.00    +0.149 HD
ATOM     14  C   UNL     1      -9.591  -0.991 -15.871  0.00  0.00    +0.128 C 
ATOM     15  O   UNL     1     -12.291  -0.651 -16.619  0.00  0.00    -0.268 OA
ENDBRANCH   6  11
TORSDOF 1
ENDMDL
MODEL 4
REMARK VINA RESULT:      -4.8     10.362     11.355
REMARK  Name = min_compound98.pdb
REMARK  3 active torsions:
REMARK  status: ('A' for Active; 'I' for Inactive)
REMARK    1  A    between atoms: _4  and  _10
REMARK    2  A    between atoms: _8  and  _11
REMARK    3  A    between atoms: _13  and  _14
REMARK                            x       y       z     vdW  Elec       q    Type
REMARK                         _______ _______ _______ _____ _____    ______ ____
ROOT
ATOM      1  O   UNL     1     -14.401  -1.772  -4.566  0.00  0.00    -0.245 OA
ATOM      2  C   UNL     1     -14.894  -0.980  -5.367  0.00  0.00    +0.345 A 
ATOM      3  N   UNL     1     -14.874   0.403  -5.222  0.00  0.00    -0.217 N 
ATOM      4  C   UNL     1     -14.179   1.003  -4.036  0.00  0.00    +0.178 C 
ATOM      5  N   UNL     1     -15.343   1.287  -6.175  0.00  0.00    -0.157 NA
ATOM      6  C   UNL     1     -15.942   0.820  -7.235  0.00  0.00    +0.210 A 
ATOM      7  C   UNL     1     -16.105  -0.670  -7.424  0.00  0.00    +0.285 A 
ATOM      8  O   UNL     1     -16.731  -1.115  -8.378  0.00  0.00    -0.265 OA
ATOM      9  N   UNL     1     -15.516  -1.454  -6.481  0.00  0.00    -0.272 N 
ATOM     10  H   UNL     1     -15.577  -2.456  -6.576  0.00  0.00    +0.174 HD
ENDROOT
BRANCH   6  11
ATOM     11  C   UNL     1     -16.460   1.841  -8.257  0.00  0.00    +0.269 C 
ATOM     12  N   UNL     1     -17.817   1.818  -8.508  0.00  0.00    -0.313 N 
ATOM     13  H   UNL     1     -18.415   1.226  -7.931  0.00  0.00    +0.149 HD
ATOM     14  C   UNL     1     -18.441   2.789  -9.369  0.00  0.00    +0.128 C 
ATOM     15  O   UNL     1     -15.684   2.621  -8.793  0.00  0.00    -0.268 OA
ENDBRANCH   6  11
TORSDOF 1
ENDMDL
MODEL 5
REMARK VINA RESULT:      -4.8      1.768      2.081
REMARK  Name = min_compound98.pdb
REMARK  3 active torsions:
REMARK  status: ('A' for Active; 'I' for Inactive)
REMARK    1  A    between atoms: _4  and  _10
REMARK    2  A    between atoms: _8  and  _11
REMARK    3  A    between atoms: _13  and  _14
REMARK                            x       y       z     vdW  Elec       q    Type
REMARK                         _______ _______ _______ _____ _____    ______ ____
ROOT
ATOM      1  O   UNL     1     -10.455  -0.730 -17.842  0.00  0.00    -0.245 OA
ATOM      2  C   UNL     1     -11.081   0.288 -17.555  0.00  0.00    +0.345 A 
ATOM      3  N   UNL     1     -10.999   0.945 -16.331  0.00  0.00    -0.217 N 
ATOM      4  C   UNL     1     -10.062   0.422 -15.283  0.00  0.00    +0.178 C 
ATOM      5  N   UNL     1     -11.631   2.142 -16.053  0.00  0.00    -0.157 NA
ATOM      6  C   UNL     1     -12.445   2.652 -16.936  0.00  0.00    +0.210 A 
ATOM      7  C   UNL     1     -12.679   1.949 -18.252  0.00  0.00    +0.285 A 
ATOM      8  O   UNL     1     -13.496   2.380 -19.055  0.00  0.00    -0.265 OA
ATOM      9  N   UNL     1     -11.928   0.835 -18.470  0.00  0.00    -0.272 N 
ATOM     10  H   UNL     1     -12.032   0.343 -19.343  0.00  0.00    +0.174 HD
ENDROOT
BRANCH   6  11
ATOM     11  C   UNL     1     -13.135   3.974 -16.574  0.00  0.00    +0.269 C 
ATOM     12  N   UNL     1     -12.929   5.027 -17.443  0.00  0.00    -0.313 N 
ATOM     13  H   UNL     1     -12.443   4.852 -18.322  0.00  0.00    +0.149 HD
ATOM     14  C   UNL     1     -13.599   6.289 -17.270  0.00  0.00    +0.128 C 
ATOM     15  O   UNL     1     -13.828   4.050 -15.568  0.00  0.00    -0.268 OA
ENDBRANCH   6  11
TORSDOF 1
ENDMDL
MODEL 6
REMARK VINA RESULT:      -4.8      1.712      4.956
REMARK  Name = min_compound98.pdb
REMARK  3 active torsions:
REMARK  status: ('A' for Active; 'I' for Inactive)
REMARK    1  A    between atoms: _4  and  _10
REMARK    2  A    between atoms: _8  and  _11
REMARK    3  A    between atoms: _13  and  _14
REMARK                            x       y       z     vdW  Elec       q    Type
REMARK                         _______ _______ _______ _____ _____    ______ ____
ROOT
ATOM      1  O   UNL     1     -14.100   5.454 -16.739  0.00  0.00    -0.245 OA
ATOM      2  C   UNL     1     -13.529   4.368 -16.658  0.00  0.00    +0.345 A 
ATOM      3  N   UNL     1     -14.142   3.182 -16.268  0.00  0.00    -0.217 N 
ATOM      4  C   UNL     1     -15.609   3.187 -15.954  0.00  0.00    +0.178 C 
ATOM      5  N   UNL     1     -13.517   1.950 -16.276  0.00  0.00    -0.157 NA
ATOM      6  C   UNL     1     -12.245   1.884 -16.558  0.00  0.00    +0.210 A 
ATOM      7  C   UNL     1     -11.472   3.139 -16.889  0.00  0.00    +0.285 A 
ATOM      8  O   UNL     1     -10.264   3.097 -17.083  0.00  0.00    -0.265 OA
ATOM      9  N   UNL     1     -12.204   4.284 -16.958  0.00  0.00    -0.272 N 
ATOM     10  H   UNL     1     -11.737   5.144 -17.197  0.00  0.00    +0.174 HD
ENDROOT
BRANCH   6  11
ATOM     11  C   UNL     1     -11.592   0.496 -16.538  0.00  0.00    +0.269 C 
ATOM     12  N   UNL     1     -10.275   0.447 -16.127  0.00  0.00    -0.313 N 
ATOM     13  H   UNL     1      -9.845   1.292 -15.750  0.00  0.00    +0.149 HD
ATOM     14  C   UNL     1      -9.579  -0.804 -15.969  0.00  0.00    +0.128 C 
ATOM     15  O   UNL     1     -12.236  -0.492 -16.868  0.00  0.00    -0.268 OA
ENDBRANCH   6  11
TORSDOF 1
ENDMDL
MODEL 7
REMARK VINA RESULT:      -4.3     13.448     13.988
REMARK  Name = min_compound98.pdb
REMARK  3 active torsions:
REMARK  status: ('A' for Active; 'I' for Inactive)
REMARK    1  A    between atoms: _4  and  _10
REMARK    2  A    between atoms: _8  and  _11
REMARK    3  A    between atoms: _13  and  _14
REMARK                            x       y       z     vdW  Elec       q    Type
REMARK                         _______ _______ _______ _____ _____    ______ ____
ROOT
ATOM      1  O   UNL     1     -14.115  -1.578  -2.382  0.00  0.00    -0.245 OA
ATOM      2  C   UNL     1     -14.602  -0.579  -2.908  0.00  0.00    +0.345 A 
ATOM      3  N   UNL     1     -15.896  -0.505  -3.412  0.00  0.00    -0.217 N 
ATOM      4  C   UNL     1     -16.798  -1.698  -3.286  0.00  0.00    +0.178 C 
ATOM      5  N   UNL     1     -16.466   0.649  -3.912  0.00  0.00    -0.157 NA
ATOM      6  C   UNL     1     -15.733   1.722  -4.029  0.00  0.00    +0.210 A 
ATOM      7  C   UNL     1     -14.282   1.703  -3.606  0.00  0.00    +0.285 A 
ATOM      8  O   UNL     1     -13.567   2.680  -3.780  0.00  0.00    -0.265 OA
ATOM      9  N   UNL     1     -13.849   0.549  -3.030  0.00  0.00    -0.272 N 
ATOM     10  H   UNL     1     -12.895   0.495  -2.710  0.00  0.00    +0.174 HD
ENDROOT
BRANCH   6  11
ATOM     11  C   UNL     1     -16.406   2.975  -4.604  0.00  0.00    +0.269 C 
ATOM     12  N   UNL     1     -16.431   4.084  -3.784  0.00  0.00    -0.313 N 
ATOM     13  H   UNL     1     -15.910   4.061  -2.907  0.00  0.00    +0.149 HD
ATOM     14  C   UNL     1     -16.945   5.350  -4.242  0.00  0.00    +0.128 C 
ATOM     15  O   UNL     1     -16.877   2.955  -5.735  0.00  0.00    -0.268 OA
ENDBRANCH   6  11
TORSDOF 1
ENDMDL
MODEL 8
REMARK VINA RESULT:      -4.3      1.988      4.718
REMARK  Name = min_compound98.pdb
REMARK  3 active torsions:
REMARK  status: ('A' for Active; 'I' for Inactive)
REMARK    1  A    between atoms: _4  and  _10
REMARK    2  A    between atoms: _8  and  _11
REMARK    3  A    between atoms: _13  and  _14
REMARK                            x       y       z     vdW  Elec       q    Type
REMARK                         _______ _______ _______ _____ _____    ______ ____
ROOT
ATOM      1  O   UNL     1     -14.700   6.384 -17.179  0.00  0.00    -0.245 OA
ATOM      2  C   UNL     1     -14.061   5.353 -16.977  0.00  0.00    +0.345 A 
ATOM      3  N   UNL     1     -12.694   5.218 -17.192  0.00  0.00    -0.217 N 
ATOM      4  C   UNL     1     -11.909   6.404 -17.669  0.00  0.00    +0.178 C 
ATOM      5  N   UNL     1     -11.968   4.088 -16.869  0.00  0.00    -0.157 NA
ATOM      6  C   UNL     1     -12.597   3.031 -16.434  0.00  0.00    +0.210 A 
ATOM      7  C   UNL     1     -14.099   3.051 -16.271  0.00  0.00    +0.285 A 
ATOM      8  O   UNL     1     -14.706   2.043 -15.935  0.00  0.00    -0.265 OA
ATOM      9  N   UNL     1     -14.704   4.245 -16.516  0.00  0.00    -0.272 N 
ATOM     10  H   UNL     1     -15.703   4.316 -16.399  0.00  0.00    +0.174 HD
ENDROOT
BRANCH   6  11
ATOM     11  C   UNL     1     -11.750   1.795 -16.104  0.00  0.00    +0.269 C 
ATOM     12  N   UNL     1     -12.138   0.612 -16.700  0.00  0.00    -0.313 N 
ATOM     13  H   UNL     1     -12.874   0.635 -17.407  0.00  0.00    +0.149 HD
ATOM     14  C   UNL     1     -11.370  -0.596 -16.551  0.00  0.00    +0.128 C 
ATOM     15  O   UNL     1     -10.786   1.893 -15.356  0.00  0.00    -0.268 OA
ENDBRANCH   6  11
TORSDOF 1
ENDMDL
MODEL 9
REMARK VINA RESULT:      -4.3     13.798     14.737
REMARK  Name = min_compound98.pdb
REMARK  3 active torsions:
REMARK  status: ('A' for Active; 'I' for Inactive)
REMARK    1  A    between atoms: _4  and  _10
REMARK    2  A    between atoms: _8  and  _11
REMARK    3  A    between atoms: _13  and  _14
REMARK                            x       y       z     vdW  Elec       q    Type
REMARK                         _______ _______ _______ _____ _____    ______ ____
ROOT
ATOM      1  O   UNL     1     -15.614  -2.903  -0.135  0.00  0.00    -0.245 OA
ATOM      2  C   UNL     1     -15.441  -2.458  -1.267  0.00  0.00    +0.345 A 
ATOM      3  N   UNL     1     -14.556  -2.992  -2.198  0.00  0.00    -0.217 N 
ATOM      4  C   UNL     1     -13.771  -4.218  -1.838  0.00  0.00    +0.178 C 
ATOM      5  N   UNL     1     -14.440  -2.545  -3.500  0.00  0.00    -0.157 NA
ATOM      6  C   UNL     1     -15.113  -1.491  -3.873  0.00  0.00    +0.210 A 
ATOM      7  C   UNL     1     -16.019  -0.781  -2.895  0.00  0.00    +0.285 A 
ATOM      8  O   UNL     1     -16.596   0.251  -3.213  0.00  0.00    -0.265 OA
ATOM      9  N   UNL     1     -16.142  -1.363  -1.672  0.00  0.00    -0.272 N 
ATOM     10  H   UNL     1     -16.753  -0.938  -0.992  0.00  0.00    +0.174 HD
ENDROOT
BRANCH   6  11
ATOM     11  C   UNL     1     -14.939  -1.024  -5.324  0.00  0.00    +0.269 C 
ATOM     12  N   UNL     1     -16.059  -1.103  -6.128  0.00  0.00    -0.313 N 
ATOM     13  H   UNL     1     -16.954  -1.345  -5.704  0.00  0.00    +0.149 HD
ATOM     14  C   UNL     1     -16.054  -0.604  -7.479  0.00  0.00    +0.128 C 
ATOM     15  O   UNL     1     -13.855  -0.604  -5.709  0.00  0.00    -0.268 OA
ENDBRANCH   6  11
TORSDOF 1
ENDMDL
