MODEL 1
REMARK VINA RESULT:      -5.4      0.000      0.000
REMARK  Name = min_compound951.pdb
REMARK  0 active torsions:
REMARK  status: ('A' for Active; 'I' for Inactive)
REMARK                            x       y       z     vdW  Elec       q    Type
REMARK                         _______ _______ _______ _____ _____    ______ ____
ROOT
ATOM      1 CL   UNL     1     -11.946   6.329 -17.540  0.00  0.00    -0.080 Cl
ATOM      2  C   UNL     1     -12.035   4.614 -17.815  0.00  0.00    +0.081 A 
ATOM      3  C   UNL     1     -12.881   4.085 -18.809  0.00  0.00    +0.081 A 
ATOM      4  C   UNL     1     -12.949   2.694 -19.028  0.00  0.00    +0.088 A 
ATOM      5 CL   UNL     1     -13.955   1.959 -20.219  0.00  0.00    -0.080 Cl
ATOM      6  C   UNL     1     -12.152   1.877 -18.227  0.00  0.00    +0.107 A 
ATOM      7  N   UNL     1     -11.966   0.524 -18.161  0.00  0.00    -0.256 N 
ATOM      8  N   UNL     1     -11.080   0.191 -17.212  0.00  0.00    -0.067 NA
ATOM      9  N   UNL     1     -10.668   1.314 -16.639  0.00  0.00    -0.128 NA
ATOM     10  H   UNL     1     -12.396  -0.211 -18.714  0.00  0.00    +0.191 HD
ATOM     11  C   UNL     1     -11.307   2.368 -17.239  0.00  0.00    +0.134 A 
ATOM     12 CL   UNL     1     -13.859   5.144 -19.785  0.00  0.00    -0.080 Cl
ATOM     13  C   UNL     1     -11.249   3.753 -17.032  0.00  0.00    +0.090 A 
ATOM     14 CL   UNL     1     -10.177   4.247 -15.792  0.00  0.00    -0.080 Cl
ENDROOT
TORSDOF 0
ENDMDL
MODEL 2
REMARK VINA RESULT:      -5.1     13.032     13.731
REMARK  Name = min_compound951.pdb
REMARK  0 active torsions:
REMARK  status: ('A' for Active; 'I' for Inactive)
REMARK                            x       y       z     vdW  Elec       q    Type
REMARK                         _______ _______ _______ _____ _____    ______ ____
ROOT
ATOM      1 CL   UNL     1     -14.096  -0.861  -5.547  0.00  0.00    -0.080 Cl
ATOM      2  C   UNL     1     -15.079   0.571  -5.488  0.00  0.00    +0.081 A 
ATOM      3  C   UNL     1     -16.164   0.740  -6.372  0.00  0.00    +0.081 A 
ATOM      4  C   UNL     1     -16.958   1.904  -6.319  0.00  0.00    +0.088 A 
ATOM      5 CL   UNL     1     -18.302   2.195  -7.359  0.00  0.00    -0.080 Cl
ATOM      6  C   UNL     1     -16.627   2.866  -5.366  0.00  0.00    +0.107 A 
ATOM      7  N   UNL     1     -17.160   4.082  -5.038  0.00  0.00    -0.256 N 
ATOM      8  N   UNL     1     -16.491   4.662  -4.032  0.00  0.00    -0.067 NA
ATOM      9  N   UNL     1     -15.509   3.842  -3.681  0.00  0.00    -0.128 NA
ATOM     10  H   UNL     1     -17.955   4.565  -5.444  0.00  0.00    +0.191 HD
ATOM     11  C   UNL     1     -15.565   2.729  -4.481  0.00  0.00    +0.134 A 
ATOM     12 CL   UNL     1     -16.540  -0.489  -7.545  0.00  0.00    -0.080 Cl
ATOM     13  C   UNL     1     -14.783   1.568  -4.544  0.00  0.00    +0.090 A 
ATOM     14 CL   UNL     1     -13.503   1.504  -3.409  0.00  0.00    -0.080 Cl
ENDROOT
TORSDOF 0
ENDMDL
MODEL 3
REMARK VINA RESULT:      -5.1      0.385      3.197
REMARK  Name = min_compound951.pdb
REMARK  0 active torsions:
REMARK  status: ('A' for Active; 'I' for Inactive)
REMARK                            x       y       z     vdW  Elec       q    Type
REMARK                         _______ _______ _______ _____ _____    ______ ____
ROOT
ATOM      1 CL   UNL     1     -13.776   5.418 -19.831  0.00  0.00    -0.080 Cl
ATOM      2  C   UNL     1     -12.813   4.392 -18.809  0.00  0.00    +0.081 A 
ATOM      3  C   UNL     1     -11.882   4.943 -17.906  0.00  0.00    +0.081 A 
ATOM      4  C   UNL     1     -11.103   4.107 -17.080  0.00  0.00    +0.088 A 
ATOM      5 CL   UNL     1      -9.941   4.691 -15.948  0.00  0.00    -0.080 Cl
ATOM      6  C   UNL     1     -11.294   2.730 -17.196  0.00  0.00    +0.107 A 
ATOM      7  N   UNL     1     -10.730   1.651 -16.572  0.00  0.00    -0.256 N 
ATOM      8  N   UNL     1     -11.242   0.497 -17.021  0.00  0.00    -0.067 NA
ATOM      9  N   UNL     1     -12.147   0.793 -17.944  0.00  0.00    -0.128 NA
ATOM     10  H   UNL     1     -10.015   1.626 -15.853  0.00  0.00    +0.191 HD
ATOM     11  C   UNL     1     -12.203   2.157 -18.076  0.00  0.00    +0.134 A 
ATOM     12 CL   UNL     1     -11.678   6.668 -17.797  0.00  0.00    -0.080 Cl
ATOM     13  C   UNL     1     -12.970   2.999 -18.891  0.00  0.00    +0.090 A 
ATOM     14 CL   UNL     1     -14.058   2.188 -19.936  0.00  0.00    -0.080 Cl
ENDROOT
TORSDOF 0
ENDMDL
MODEL 4
REMARK VINA RESULT:      -5.1     12.138     12.729
REMARK  Name = min_compound951.pdb
REMARK  0 active torsions:
REMARK  status: ('A' for Active; 'I' for Inactive)
REMARK                            x       y       z     vdW  Elec       q    Type
REMARK                         _______ _______ _______ _____ _____    ______ ____
ROOT
ATOM      1 CL   UNL     1     -17.236   3.770  -6.282  0.00  0.00    -0.080 Cl
ATOM      2  C   UNL     1     -16.612   2.148  -6.272  0.00  0.00    +0.081 A 
ATOM      3  C   UNL     1     -16.901   1.255  -7.323  0.00  0.00    +0.081 A 
ATOM      4  C   UNL     1     -16.392  -0.059  -7.309  0.00  0.00    +0.088 A 
ATOM      5 CL   UNL     1     -16.694  -1.217  -8.550  0.00  0.00    -0.080 Cl
ATOM      6  C   UNL     1     -15.600  -0.431  -6.223  0.00  0.00    +0.107 A 
ATOM      7  N   UNL     1     -14.956  -1.589  -5.886  0.00  0.00    -0.256 N 
ATOM      8  N   UNL     1     -14.303  -1.473  -4.722  0.00  0.00    -0.067 NA
ATOM      9  N   UNL     1     -14.504  -0.241  -4.273  0.00  0.00    -0.128 NA
ATOM     10  H   UNL     1     -14.919  -2.472  -6.386  0.00  0.00    +0.191 HD
ATOM     11  C   UNL     1     -15.296   0.425  -5.172  0.00  0.00    +0.134 A 
ATOM     12 CL   UNL     1     -17.895   1.764  -8.658  0.00  0.00    -0.080 Cl
ATOM     13  C   UNL     1     -15.809   1.729  -5.198  0.00  0.00    +0.090 A 
ATOM     14 CL   UNL     1     -15.373   2.697  -3.854  0.00  0.00    -0.080 Cl
ENDROOT
TORSDOF 0
ENDMDL
MODEL 5
REMARK VINA RESULT:      -5.0      2.190      3.547
REMARK  Name = min_compound951.pdb
REMARK  0 active torsions:
REMARK  status: ('A' for Active; 'I' for Inactive)
REMARK                            x       y       z     vdW  Elec       q    Type
REMARK                         _______ _______ _______ _____ _____    ______ ____
ROOT
ATOM      1 CL   UNL     1      -9.954   4.529 -15.501  0.00  0.00    -0.080 Cl
ATOM      2  C   UNL     1     -10.959   3.593 -16.567  0.00  0.00    +0.081 A 
ATOM      3  C   UNL     1     -11.042   2.192 -16.436  0.00  0.00    +0.081 A 
ATOM      4  C   UNL     1     -11.858   1.438 -17.303  0.00  0.00    +0.088 A 
ATOM      5 CL   UNL     1     -12.022  -0.276 -17.218  0.00  0.00    -0.080 Cl
ATOM      6  C   UNL     1     -12.569   2.131 -18.283  0.00  0.00    +0.107 A 
ATOM      7  N   UNL     1     -13.432   1.738 -19.269  0.00  0.00    -0.256 N 
ATOM      8  N   UNL     1     -13.877   2.781 -19.983  0.00  0.00    -0.067 NA
ATOM      9  N   UNL     1     -13.317   3.874 -19.484  0.00  0.00    -0.128 NA
ATOM     10  H   UNL     1     -13.754   0.805 -19.505  0.00  0.00    +0.191 HD
ATOM     11  C   UNL     1     -12.507   3.510 -18.438  0.00  0.00    +0.134 A 
ATOM     12 CL   UNL     1     -10.137   1.370 -15.198  0.00  0.00    -0.080 Cl
ATOM     13  C   UNL     1     -11.693   4.248 -17.569  0.00  0.00    +0.090 A 
ATOM     14 CL   UNL     1     -11.692   5.937 -17.850  0.00  0.00    -0.080 Cl
ENDROOT
TORSDOF 0
ENDMDL
MODEL 6
REMARK VINA RESULT:      -4.9      2.246      4.068
REMARK  Name = min_compound951.pdb
REMARK  0 active torsions:
REMARK  status: ('A' for Active; 'I' for Inactive)
REMARK                            x       y       z     vdW  Elec       q    Type
REMARK                         _______ _______ _______ _____ _____    ______ ____
ROOT
ATOM      1 CL   UNL     1     -10.092   1.468 -15.387  0.00  0.00    -0.080 Cl
ATOM      2  C   UNL     1     -11.034   2.395 -16.517  0.00  0.00    +0.081 A 
ATOM      3  C   UNL     1     -10.907   3.797 -16.584  0.00  0.00    +0.081 A 
ATOM      4  C   UNL     1     -11.673   4.544 -17.502  0.00  0.00    +0.088 A 
ATOM      5 CL   UNL     1     -11.584   6.259 -17.654  0.00  0.00    -0.080 Cl
ATOM      6  C   UNL     1     -12.549   3.842 -18.330  0.00  0.00    +0.107 A 
ATOM      7  N   UNL     1     -13.423   4.227 -19.309  0.00  0.00    -0.256 N 
ATOM      8  N   UNL     1     -14.066   3.177 -19.840  0.00  0.00    -0.067 NA
ATOM      9  N   UNL     1     -13.630   2.088 -19.221  0.00  0.00    -0.128 NA
ATOM     10  H   UNL     1     -13.626   5.157 -19.659  0.00  0.00    +0.191 HD
ATOM     11  C   UNL     1     -12.697   2.462 -18.288  0.00  0.00    +0.134 A 
ATOM     12 CL   UNL     1      -9.799   4.630 -15.531  0.00  0.00    -0.080 Cl
ATOM     13  C   UNL     1     -11.930   1.732 -17.371  0.00  0.00    +0.090 A 
ATOM     14 CL   UNL     1     -12.191   0.039 -17.405  0.00  0.00    -0.080 Cl
ENDROOT
TORSDOF 0
ENDMDL
MODEL 7
REMARK VINA RESULT:      -4.9     12.631     13.508
REMARK  Name = min_compound951.pdb
REMARK  0 active torsions:
REMARK  status: ('A' for Active; 'I' for Inactive)
REMARK                            x       y       z     vdW  Elec       q    Type
REMARK                         _______ _______ _______ _____ _____    ______ ____
ROOT
ATOM      1 CL   UNL     1     -16.696   1.978  -8.877  0.00  0.00    -0.080 Cl
ATOM      2  C   UNL     1     -16.799   0.857  -7.552  0.00  0.00    +0.081 A 
ATOM      3  C   UNL     1     -15.649   0.490  -6.826  0.00  0.00    +0.081 A 
ATOM      4  C   UNL     1     -15.738  -0.419  -5.752  0.00  0.00    +0.088 A 
ATOM      5 CL   UNL     1     -14.387  -0.925  -4.809  0.00  0.00    -0.080 Cl
ATOM      6  C   UNL     1     -16.999  -0.931  -5.446  0.00  0.00    +0.107 A 
ATOM      7  N   UNL     1     -17.448  -1.810  -4.499  0.00  0.00    -0.256 N 
ATOM      8  N   UNL     1     -18.771  -2.004  -4.591  0.00  0.00    -0.067 NA
ATOM      9  N   UNL     1     -19.214  -1.261  -5.596  0.00  0.00    -0.128 NA
ATOM     10  H   UNL     1     -16.927  -2.300  -3.779  0.00  0.00    +0.191 HD
ATOM     11  C   UNL     1     -18.151  -0.589  -6.143  0.00  0.00    +0.134 A 
ATOM     12 CL   UNL     1     -14.096   1.155  -7.245  0.00  0.00    -0.080 Cl
ATOM     13  C   UNL     1     -18.048   0.315  -7.207  0.00  0.00    +0.090 A 
ATOM     14 CL   UNL     1     -19.528   0.666  -7.995  0.00  0.00    -0.080 Cl
ENDROOT
TORSDOF 0
ENDMDL
MODEL 8
REMARK VINA RESULT:      -4.9     13.079     14.088
REMARK  Name = min_compound951.pdb
REMARK  0 active torsions:
REMARK  status: ('A' for Active; 'I' for Inactive)
REMARK                            x       y       z     vdW  Elec       q    Type
REMARK                         _______ _______ _______ _____ _____    ______ ____
ROOT
ATOM      1 CL   UNL     1     -16.385  -0.414  -7.629  0.00  0.00    -0.080 Cl
ATOM      2  C   UNL     1     -16.173   0.812  -6.415  0.00  0.00    +0.081 A 
ATOM      3  C   UNL     1     -15.036   0.815  -5.583  0.00  0.00    +0.081 A 
ATOM      4  C   UNL     1     -14.869   1.811  -4.600  0.00  0.00    +0.088 A 
ATOM      5 CL   UNL     1     -13.513   1.894  -3.539  0.00  0.00    -0.080 Cl
ATOM      6  C   UNL     1     -15.866   2.780  -4.490  0.00  0.00    +0.107 A 
ATOM      7  N   UNL     1     -16.032   3.865  -3.674  0.00  0.00    -0.256 N 
ATOM      8  N   UNL     1     -17.172   4.517  -3.942  0.00  0.00    -0.067 NA
ATOM      9  N   UNL     1     -17.774   3.876  -4.935  0.00  0.00    -0.128 NA
ATOM     10  H   UNL     1     -15.429   4.211  -2.935  0.00  0.00    +0.191 HD
ATOM     11  C   UNL     1     -16.998   2.805  -5.295  0.00  0.00    +0.134 A 
ATOM     12 CL   UNL     1     -13.817  -0.415  -5.757  0.00  0.00    -0.080 Cl
ATOM     13  C   UNL     1     -17.152   1.808  -6.268  0.00  0.00    +0.090 A 
ATOM     14 CL   UNL     1     -18.581   1.934  -7.202  0.00  0.00    -0.080 Cl
ENDROOT
TORSDOF 0
ENDMDL
MODEL 9
REMARK VINA RESULT:      -4.8      2.855      3.728
REMARK  Name = min_compound951.pdb
REMARK  0 active torsions:
REMARK  status: ('A' for Active; 'I' for Inactive)
REMARK                            x       y       z     vdW  Elec       q    Type
REMARK                         _______ _______ _______ _____ _____    ______ ____
ROOT
ATOM      1 CL   UNL     1     -10.126   1.449 -15.513  0.00  0.00    -0.080 Cl
ATOM      2  C   UNL     1     -11.019   2.494 -16.577  0.00  0.00    +0.081 A 
ATOM      3  C   UNL     1     -11.953   1.968 -17.490  0.00  0.00    +0.081 A 
ATOM      4  C   UNL     1     -12.675   2.820 -18.351  0.00  0.00    +0.088 A 
ATOM      5 CL   UNL     1     -13.836   2.266 -19.498  0.00  0.00    -0.080 Cl
ATOM      6  C   UNL     1     -12.424   4.189 -18.258  0.00  0.00    +0.107 A 
ATOM      7  N   UNL     1     -12.924   5.279 -18.916  0.00  0.00    -0.256 N 
ATOM      8  N   UNL     1     -12.371   6.418 -18.478  0.00  0.00    -0.067 NA
ATOM      9  N   UNL     1     -11.501   6.101 -17.528  0.00  0.00    -0.128 NA
ATOM     10  H   UNL     1     -13.622   5.321 -19.651  0.00  0.00    +0.191 HD
ATOM     11  C   UNL     1     -11.510   4.739 -17.369  0.00  0.00    +0.134 A 
ATOM     12 CL   UNL     1     -12.233   0.252 -17.570  0.00  0.00    -0.080 Cl
ATOM     13  C   UNL     1     -10.800   3.880 -16.519  0.00  0.00    +0.090 A 
ATOM     14 CL   UNL     1      -9.701   4.663 -15.465  0.00  0.00    -0.080 Cl
ENDROOT
TORSDOF 0
ENDMDL
