MODEL 1
REMARK VINA RESULT:      -6.4      0.000      0.000
REMARK  Name = min_compound927.pdb
REMARK  8 active torsions:
REMARK  status: ('A' for Active; 'I' for Inactive)
REMARK    1  A    between atoms: _1  and  _16
REMARK    2  A    between atoms: _2  and  _10
REMARK    3  A    between atoms: _9  and  _11
REMARK    4  A    between atoms: _10  and  _13
REMARK    5  A    between atoms: _11  and  _15
REMARK    6  A    between atoms: _12  and  _15
REMARK    7  A    between atoms: _12  and  _19
REMARK    8  A    between atoms: _12  and  _20
REMARK                            x       y       z     vdW  Elec       q    Type
REMARK                         _______ _______ _______ _____ _____    ______ ____
ROOT
ATOM      1  C   UNL     1     -16.489   4.839 -11.788  0.00  0.00    +0.280 A 
ATOM      2  C   UNL     1     -15.506   5.043 -12.769  0.00  0.00    +0.107 A 
ATOM      3  C   UNL     1     -15.354   4.129 -13.813  0.00  0.00    +0.037 A 
ATOM      4  N   UNL     1     -14.411   4.392 -14.817  0.00  0.00    -0.339 N 
ATOM      5  H   UNL     1     -13.605   4.902 -14.462  0.00  0.00    +0.146 HD
ATOM      6  C   UNL     1     -14.042   3.265 -15.686  0.00  0.00    +0.084 C 
ATOM      7  C   UNL     1     -15.317   2.583 -16.194  0.00  0.00    +0.028 C 
ATOM      8  C   UNL     1     -16.125   2.044 -15.019  0.00  0.00    +0.039 C 
ATOM      9  C   UNL     1     -16.250   3.050 -13.903  0.00  0.00    -0.026 A 
ATOM     10  C   UNL     1     -17.238   2.861 -12.917  0.00  0.00    +0.018 A 
ATOM     11  C   UNL     1     -17.379   3.754 -11.844  0.00  0.00    +0.055 A 
ENDROOT
BRANCH   1  12
ATOM     12  N   UNL     1     -16.527   5.787 -10.681  0.00  0.00    +0.080 N 
ATOM     13  O   UNL     1     -15.996   5.442  -9.615  0.00  0.00    +0.041 OA
ATOM     14  O   UNL     1     -17.150   6.845 -10.857  0.00  0.00    -0.576 OA
ENDBRANCH   1  12
BRANCH   6  15
ATOM     15  C   UNL     1     -13.175   3.794 -16.863  0.00  0.00    +0.103 C 
BRANCH  15  16
ATOM     16  N   UNL     1     -11.907   3.063 -17.019  0.00  0.00    -0.312 NA
ATOM     17  H   UNL     1     -11.304   3.550 -17.681  0.00  0.00    +0.122 HD
BRANCH  16  18
ATOM     18  C   UNL     1     -11.173   2.909 -15.749  0.00  0.00    +0.048 C 
ATOM     19  C   UNL     1     -10.189   4.081 -15.622  0.00  0.00    +0.023 C 
ATOM     20  C   UNL     1     -10.522   1.564 -15.622  0.00  0.00    +0.023 C 
ENDBRANCH  16  18
ENDBRANCH  15  16
ENDBRANCH   6  15
BRANCH  11  21
ATOM     21  C   UNL     1     -18.457   3.523 -10.823  0.00  0.00    +0.197 C 
BRANCH  21  22
ATOM     22  O   UNL     1     -17.888   2.877  -9.695  0.00  0.00    -0.390 OA
ATOM     23  H   UNL     1     -18.022   1.921  -9.819  0.00  0.00    +0.210 HD
ENDBRANCH  21  22
ENDBRANCH  11  21
TORSDOF 6
ENDMDL
MODEL 2
REMARK VINA RESULT:      -5.8      3.370      4.604
REMARK  Name = min_compound927.pdb
REMARK  8 active torsions:
REMARK  status: ('A' for Active; 'I' for Inactive)
REMARK    1  A    between atoms: _1  and  _16
REMARK    2  A    between atoms: _2  and  _10
REMARK    3  A    between atoms: _9  and  _11
REMARK    4  A    between atoms: _10  and  _13
REMARK    5  A    between atoms: _11  and  _15
REMARK    6  A    between atoms: _12  and  _15
REMARK    7  A    between atoms: _12  and  _19
REMARK    8  A    between atoms: _12  and  _20
REMARK                            x       y       z     vdW  Elec       q    Type
REMARK                         _______ _______ _______ _____ _____    ______ ____
ROOT
ATOM      1  C   UNL     1     -15.980   7.033 -15.077  0.00  0.00    +0.280 A 
ATOM      2  C   UNL     1     -15.415   5.778 -15.352  0.00  0.00    +0.107 A 
ATOM      3  C   UNL     1     -14.467   5.642 -16.368  0.00  0.00    +0.037 A 
ATOM      4  N   UNL     1     -13.868   4.391 -16.576  0.00  0.00    -0.339 N 
ATOM      5  H   UNL     1     -14.499   3.622 -16.358  0.00  0.00    +0.146 HD
ATOM      6  C   UNL     1     -13.155   4.206 -17.848  0.00  0.00    +0.084 C 
ATOM      7  C   UNL     1     -12.211   5.393 -18.072  0.00  0.00    +0.028 C 
ATOM      8  C   UNL     1     -13.010   6.688 -18.150  0.00  0.00    +0.039 C 
ATOM      9  C   UNL     1     -14.037   6.792 -17.051  0.00  0.00    -0.026 A 
ATOM     10  C   UNL     1     -14.606   8.047 -16.760  0.00  0.00    +0.018 A 
ATOM     11  C   UNL     1     -15.584   8.192 -15.765  0.00  0.00    +0.055 A 
ENDROOT
BRANCH   1  12
ATOM     12  N   UNL     1     -17.029   7.081 -14.065  0.00  0.00    +0.080 N 
ATOM     13  O   UNL     1     -16.698   7.398 -12.914  0.00  0.00    +0.041 OA
ATOM     14  O   UNL     1     -18.169   6.731 -14.409  0.00  0.00    -0.576 OA
ENDBRANCH   1  12
BRANCH   6  15
ATOM     15  C   UNL     1     -12.374   2.862 -17.802  0.00  0.00    +0.103 C 
BRANCH  15  16
ATOM     16  N   UNL     1     -12.137   2.380 -16.431  0.00  0.00    -0.312 NA
ATOM     17  H   UNL     1     -13.027   2.195 -15.969  0.00  0.00    +0.122 HD
BRANCH  16  18
ATOM     18  C   UNL     1     -11.327   1.149 -16.387  0.00  0.00    +0.048 C 
ATOM     19  C   UNL     1     -10.096   1.355 -17.283  0.00  0.00    +0.023 C 
ATOM     20  C   UNL     1     -12.121  -0.075 -16.736  0.00  0.00    +0.023 C 
ENDBRANCH  16  18
ENDBRANCH  15  16
ENDBRANCH   6  15
BRANCH  11  21
ATOM     21  C   UNL     1     -16.153   9.553 -15.477  0.00  0.00    +0.197 C 
BRANCH  21  22
ATOM     22  O   UNL     1     -15.750   9.952 -14.176  0.00  0.00    -0.390 OA
ATOM     23  H   UNL     1     -14.962  10.513 -14.284  0.00  0.00    +0.210 HD
ENDBRANCH  21  22
ENDBRANCH  11  21
TORSDOF 6
ENDMDL
MODEL 3
REMARK VINA RESULT:      -5.8      1.320      1.995
REMARK  Name = min_compound927.pdb
REMARK  8 active torsions:
REMARK  status: ('A' for Active; 'I' for Inactive)
REMARK    1  A    between atoms: _1  and  _16
REMARK    2  A    between atoms: _2  and  _10
REMARK    3  A    between atoms: _9  and  _11
REMARK    4  A    between atoms: _10  and  _13
REMARK    5  A    between atoms: _11  and  _15
REMARK    6  A    between atoms: _12  and  _15
REMARK    7  A    between atoms: _12  and  _19
REMARK    8  A    between atoms: _12  and  _20
REMARK                            x       y       z     vdW  Elec       q    Type
REMARK                         _______ _______ _______ _____ _____    ______ ____
ROOT
ATOM      1  C   UNL     1     -16.464   4.831 -11.781  0.00  0.00    +0.280 A 
ATOM      2  C   UNL     1     -15.467   5.040 -12.746  0.00  0.00    +0.107 A 
ATOM      3  C   UNL     1     -15.305   4.135 -13.797  0.00  0.00    +0.037 A 
ATOM      4  N   UNL     1     -14.347   4.405 -14.785  0.00  0.00    -0.339 N 
ATOM      5  H   UNL     1     -13.543   4.906 -14.414  0.00  0.00    +0.146 HD
ATOM      6  C   UNL     1     -13.971   3.285 -15.660  0.00  0.00    +0.084 C 
ATOM      7  C   UNL     1     -15.242   2.614 -16.193  0.00  0.00    +0.028 C 
ATOM      8  C   UNL     1     -16.069   2.067 -15.035  0.00  0.00    +0.039 C 
ATOM      9  C   UNL     1     -16.205   3.063 -13.910  0.00  0.00    -0.026 A 
ATOM     10  C   UNL     1     -17.207   2.869 -12.940  0.00  0.00    +0.018 A 
ATOM     11  C   UNL     1     -17.359   3.751 -11.860  0.00  0.00    +0.055 A 
ENDROOT
BRANCH   1  12
ATOM     12  N   UNL     1     -16.513   5.768 -10.664  0.00  0.00    +0.080 N 
ATOM     13  O   UNL     1     -15.976   5.419  -9.603  0.00  0.00    +0.041 OA
ATOM     14  O   UNL     1     -17.150   6.819 -10.829  0.00  0.00    -0.576 OA
ENDBRANCH   1  12
BRANCH   6  15
ATOM     15  C   UNL     1     -13.085   3.821 -16.820  0.00  0.00    +0.103 C 
BRANCH  15  16
ATOM     16  N   UNL     1     -13.823   4.682 -17.758  0.00  0.00    -0.312 NA
ATOM     17  H   UNL     1     -14.777   4.821 -17.425  0.00  0.00    +0.122 HD
BRANCH  16  18
ATOM     18  C   UNL     1     -13.197   6.005 -17.937  0.00  0.00    +0.048 C 
ATOM     19  C   UNL     1     -11.728   5.901 -17.501  0.00  0.00    +0.023 C 
ATOM     20  C   UNL     1     -13.952   7.097 -17.239  0.00  0.00    +0.023 C 
ENDBRANCH  16  18
ENDBRANCH  15  16
ENDBRANCH   6  15
BRANCH  11  21
ATOM     21  C   UNL     1     -18.451   3.515 -10.857  0.00  0.00    +0.197 C 
BRANCH  21  22
ATOM     22  O   UNL     1     -17.899   2.870  -9.721  0.00  0.00    -0.390 OA
ATOM     23  H   UNL     1     -17.670   3.568  -9.082  0.00  0.00    +0.210 HD
ENDBRANCH  21  22
ENDBRANCH  11  21
TORSDOF 6
ENDMDL
MODEL 4
REMARK VINA RESULT:      -5.7     11.081     13.643
REMARK  Name = min_compound927.pdb
REMARK  8 active torsions:
REMARK  status: ('A' for Active; 'I' for Inactive)
REMARK    1  A    between atoms: _1  and  _16
REMARK    2  A    between atoms: _2  and  _10
REMARK    3  A    between atoms: _9  and  _11
REMARK    4  A    between atoms: _10  and  _13
REMARK    5  A    between atoms: _11  and  _15
REMARK    6  A    between atoms: _12  and  _15
REMARK    7  A    between atoms: _12  and  _19
REMARK    8  A    between atoms: _12  and  _20
REMARK                            x       y       z     vdW  Elec       q    Type
REMARK                         _______ _______ _______ _____ _____    ______ ____
ROOT
ATOM      1  C   UNL     1     -14.672  -4.853  -1.543  0.00  0.00    +0.280 A 
ATOM      2  C   UNL     1     -15.775  -4.323  -2.229  0.00  0.00    +0.107 A 
ATOM      3  C   UNL     1     -15.804  -2.971  -2.577  0.00  0.00    +0.037 A 
ATOM      4  N   UNL     1     -16.888  -2.483  -3.321  0.00  0.00    -0.339 N 
ATOM      5  H   UNL     1     -17.753  -2.975  -3.109  0.00  0.00    +0.146 HD
ATOM      6  C   UNL     1     -17.053  -1.023  -3.365  0.00  0.00    +0.084 C 
ATOM      7  C   UNL     1     -15.710  -0.376  -3.722  0.00  0.00    +0.028 C 
ATOM      8  C   UNL     1     -14.669  -0.714  -2.662  0.00  0.00    +0.039 C 
ATOM      9  C   UNL     1     -14.680  -2.177  -2.297  0.00  0.00    -0.026 A 
ATOM     10  C   UNL     1     -13.574  -2.723  -1.616  0.00  0.00    +0.018 A 
ATOM     11  C   UNL     1     -13.547  -4.071  -1.230  0.00  0.00    +0.055 A 
ENDROOT
BRANCH   1  12
ATOM     12  N   UNL     1     -14.753  -6.250  -1.134  0.00  0.00    +0.080 N 
ATOM     13  O   UNL     1     -14.374  -7.106  -1.946  0.00  0.00    +0.041 OA
ATOM     14  O   UNL     1     -15.263  -6.491  -0.028  0.00  0.00    -0.576 OA
ENDBRANCH   1  12
BRANCH   6  15
ATOM     15  C   UNL     1     -18.149  -0.666  -4.408  0.00  0.00    +0.103 C 
BRANCH  15  16
ATOM     16  N   UNL     1     -18.030  -1.438  -5.655  0.00  0.00    -0.312 NA
ATOM     17  H   UNL     1     -18.870  -1.997  -5.800  0.00  0.00    +0.122 HD
BRANCH  16  18
ATOM     18  C   UNL     1     -17.831  -0.584  -6.841  0.00  0.00    +0.048 C 
ATOM     19  C   UNL     1     -16.540  -1.033  -7.542  0.00  0.00    +0.023 C 
ATOM     20  C   UNL     1     -17.853   0.878  -6.507  0.00  0.00    +0.023 C 
ENDBRANCH  16  18
ENDBRANCH  15  16
ENDBRANCH   6  15
BRANCH  11  21
ATOM     21  C   UNL     1     -12.341  -4.615  -0.519  0.00  0.00    +0.197 C 
BRANCH  21  22
ATOM     22  O   UNL     1     -11.311  -3.640  -0.550  0.00  0.00    -0.390 OA
ATOM     23  H   UNL     1     -10.472  -4.109  -0.399  0.00  0.00    +0.210 HD
ENDBRANCH  21  22
ENDBRANCH  11  21
TORSDOF 6
ENDMDL
MODEL 5
REMARK VINA RESULT:      -5.7      3.934      6.607
REMARK  Name = min_compound927.pdb
REMARK  8 active torsions:
REMARK  status: ('A' for Active; 'I' for Inactive)
REMARK    1  A    between atoms: _1  and  _16
REMARK    2  A    between atoms: _2  and  _10
REMARK    3  A    between atoms: _9  and  _11
REMARK    4  A    between atoms: _10  and  _13
REMARK    5  A    between atoms: _11  and  _15
REMARK    6  A    between atoms: _12  and  _15
REMARK    7  A    between atoms: _12  and  _19
REMARK    8  A    between atoms: _12  and  _20
REMARK                            x       y       z     vdW  Elec       q    Type
REMARK                         _______ _______ _______ _____ _____    ______ ____
ROOT
ATOM      1  C   UNL     1     -12.617   3.242 -16.006  0.00  0.00    +0.280 A 
ATOM      2  C   UNL     1     -13.339   4.126 -15.190  0.00  0.00    +0.107 A 
ATOM      3  C   UNL     1     -14.653   3.829 -14.822  0.00  0.00    +0.037 A 
ATOM      4  N   UNL     1     -15.327   4.695 -13.950  0.00  0.00    -0.339 N 
ATOM      5  H   UNL     1     -15.036   5.663 -14.068  0.00  0.00    +0.146 HD
ATOM      6  C   UNL     1     -16.787   4.541 -13.867  0.00  0.00    +0.084 C 
ATOM      7  C   UNL     1     -17.125   3.061 -13.658  0.00  0.00    +0.028 C 
ATOM      8  C   UNL     1     -16.618   2.238 -14.836  0.00  0.00    +0.039 C 
ATOM      9  C   UNL     1     -15.205   2.599 -15.219  0.00  0.00    -0.026 A 
ATOM     10  C   UNL     1     -14.467   1.717 -16.031  0.00  0.00    +0.018 A 
ATOM     11  C   UNL     1     -13.158   2.018 -16.436  0.00  0.00    +0.055 A 
ENDROOT
BRANCH   1  12
ATOM     12  N   UNL     1     -11.285   3.662 -16.424  0.00  0.00    +0.080 N 
ATOM     13  O   UNL     1     -11.140   4.014 -17.603  0.00  0.00    +0.041 OA
ATOM     14  O   UNL     1     -10.371   3.572 -15.589  0.00  0.00    -0.576 OA
ENDBRANCH   1  12
BRANCH   6  15
ATOM     15  C   UNL     1     -17.325   5.415 -12.699  0.00  0.00    +0.103 C 
BRANCH  15  16
ATOM     16  N   UNL     1     -16.337   5.613 -11.626  0.00  0.00    -0.312 NA
ATOM     17  H   UNL     1     -16.206   6.609 -11.453  0.00  0.00    +0.122 HD
BRANCH  16  18
ATOM     18  C   UNL     1     -16.731   4.971 -10.358  0.00  0.00    +0.048 C 
ATOM     19  C   UNL     1     -16.673   6.031  -9.248  0.00  0.00    +0.023 C 
ATOM     20  C   UNL     1     -15.919   3.746 -10.058  0.00  0.00    +0.023 C 
ENDBRANCH  16  18
ENDBRANCH  15  16
ENDBRANCH   6  15
BRANCH  11  21
ATOM     21  C   UNL     1     -12.402   1.041 -17.290  0.00  0.00    +0.197 C 
BRANCH  21  22
ATOM     22  O   UNL     1     -12.576   1.392 -18.653  0.00  0.00    -0.390 OA
ATOM     23  H   UNL     1     -13.372   1.950 -18.702  0.00  0.00    +0.210 HD
ENDBRANCH  21  22
ENDBRANCH  11  21
TORSDOF 6
ENDMDL
MODEL 6
REMARK VINA RESULT:      -5.6     10.531     12.946
REMARK  Name = min_compound927.pdb
REMARK  8 active torsions:
REMARK  status: ('A' for Active; 'I' for Inactive)
REMARK    1  A    between atoms: _1  and  _16
REMARK    2  A    between atoms: _2  and  _10
REMARK    3  A    between atoms: _9  and  _11
REMARK    4  A    between atoms: _10  and  _13
REMARK    5  A    between atoms: _11  and  _15
REMARK    6  A    between atoms: _12  and  _15
REMARK    7  A    between atoms: _12  and  _19
REMARK    8  A    between atoms: _12  and  _20
REMARK                            x       y       z     vdW  Elec       q    Type
REMARK                         _______ _______ _______ _____ _____    ______ ____
ROOT
ATOM      1  C   UNL     1     -15.504   0.410  -4.688  0.00  0.00    +0.280 A 
ATOM      2  C   UNL     1     -16.160  -0.804  -4.431  0.00  0.00    +0.107 A 
ATOM      3  C   UNL     1     -15.695  -1.655  -3.427  0.00  0.00    +0.037 A 
ATOM      4  N   UNL     1     -16.410  -2.829  -3.146  0.00  0.00    -0.339 N 
ATOM      5  H   UNL     1     -16.860  -3.213  -3.974  0.00  0.00    +0.146 HD
ATOM      6  C   UNL     1     -15.714  -3.848  -2.345  0.00  0.00    +0.084 C 
ATOM      7  C   UNL     1     -15.099  -3.182  -1.110  0.00  0.00    +0.028 C 
ATOM      8  C   UNL     1     -14.085  -2.126  -1.535  0.00  0.00    +0.039 C 
ATOM      9  C   UNL     1     -14.613  -1.239  -2.634  0.00  0.00    -0.026 A 
ATOM     10  C   UNL     1     -13.968  -0.014  -2.896  0.00  0.00    +0.018 A 
ATOM     11  C   UNL     1     -14.404   0.835  -3.924  0.00  0.00    +0.055 A 
ENDROOT
BRANCH   1  12
ATOM     12  N   UNL     1     -15.991   1.202  -5.811  0.00  0.00    +0.080 N 
ATOM     13  O   UNL     1     -15.523   0.954  -6.931  0.00  0.00    +0.041 OA
ATOM     14  O   UNL     1     -16.787   2.119  -5.558  0.00  0.00    -0.576 OA
ENDBRANCH   1  12
BRANCH   6  15
ATOM     15  C   UNL     1     -16.726  -4.958  -1.946  0.00  0.00    +0.103 C 
BRANCH  15  16
ATOM     16  N   UNL     1     -16.356  -6.287  -2.459  0.00  0.00    -0.312 NA
ATOM     17  H   UNL     1     -16.433  -6.301  -3.476  0.00  0.00    +0.122 HD
BRANCH  16  18
ATOM     18  C   UNL     1     -14.982  -6.681  -2.094  0.00  0.00    +0.048 C 
ATOM     19  C   UNL     1     -14.565  -7.851  -2.997  0.00  0.00    +0.023 C 
ATOM     20  C   UNL     1     -14.840  -6.976  -0.630  0.00  0.00    +0.023 C 
ENDBRANCH  16  18
ENDBRANCH  15  16
ENDBRANCH   6  15
BRANCH  11  21
ATOM     21  C   UNL     1     -13.696   2.139  -4.159  0.00  0.00    +0.197 C 
BRANCH  21  22
ATOM     22  O   UNL     1     -14.535   3.200  -3.729  0.00  0.00    -0.390 OA
ATOM     23  H   UNL     1     -14.212   4.009  -4.161  0.00  0.00    +0.210 HD
ENDBRANCH  21  22
ENDBRANCH  11  21
TORSDOF 6
ENDMDL
MODEL 7
REMARK VINA RESULT:      -5.6      6.161      7.611
REMARK  Name = min_compound927.pdb
REMARK  8 active torsions:
REMARK  status: ('A' for Active; 'I' for Inactive)
REMARK    1  A    between atoms: _1  and  _16
REMARK    2  A    between atoms: _2  and  _10
REMARK    3  A    between atoms: _9  and  _11
REMARK    4  A    between atoms: _10  and  _13
REMARK    5  A    between atoms: _11  and  _15
REMARK    6  A    between atoms: _12  and  _15
REMARK    7  A    between atoms: _12  and  _19
REMARK    8  A    between atoms: _12  and  _20
REMARK                            x       y       z     vdW  Elec       q    Type
REMARK                         _______ _______ _______ _____ _____    ______ ____
ROOT
ATOM      1  C   UNL     1     -11.931   1.625 -17.238  0.00  0.00    +0.280 A 
ATOM      2  C   UNL     1     -12.581   2.234 -18.322  0.00  0.00    +0.107 A 
ATOM      3  C   UNL     1     -12.694   3.625 -18.383  0.00  0.00    +0.037 A 
ATOM      4  N   UNL     1     -13.287   4.210 -19.510  0.00  0.00    -0.339 N 
ATOM      5  H   UNL     1     -14.012   3.620 -19.913  0.00  0.00    +0.146 HD
ATOM      6  C   UNL     1     -13.696   5.617 -19.383  0.00  0.00    +0.084 C 
ATOM      7  C   UNL     1     -12.533   6.428 -18.800  0.00  0.00    +0.028 C 
ATOM      8  C   UNL     1     -12.173   5.902 -17.415  0.00  0.00    +0.039 C 
ATOM      9  C   UNL     1     -12.079   4.397 -17.383  0.00  0.00    -0.026 A 
ATOM     10  C   UNL     1     -11.422   3.773 -16.305  0.00  0.00    +0.018 A 
ATOM     11  C   UNL     1     -11.331   2.377 -16.214  0.00  0.00    +0.055 A 
ENDROOT
BRANCH   1  12
ATOM     12  N   UNL     1     -11.932   0.167 -17.199  0.00  0.00    +0.080 N 
ATOM     13  O   UNL     1     -12.841  -0.386 -16.563  0.00  0.00    +0.041 OA
ATOM     14  O   UNL     1     -10.984  -0.419 -17.744  0.00  0.00    -0.576 OA
ENDBRANCH   1  12
BRANCH   6  15
ATOM     15  C   UNL     1     -14.115   6.153 -20.781  0.00  0.00    +0.103 C 
BRANCH  15  16
ATOM     16  N   UNL     1     -13.418   5.479 -21.889  0.00  0.00    -0.312 NA
ATOM     17  H   UNL     1     -14.093   4.997 -22.482  0.00  0.00    +0.122 HD
BRANCH  16  18
ATOM     18  C   UNL     1     -12.642   6.410 -22.730  0.00  0.00    +0.048 C 
ATOM     19  C   UNL     1     -11.173   6.341 -22.288  0.00  0.00    +0.023 C 
ATOM     20  C   UNL     1     -13.206   7.800 -22.718  0.00  0.00    +0.023 C 
ENDBRANCH  16  18
ENDBRANCH  15  16
ENDBRANCH   6  15
BRANCH  11  21
ATOM     21  C   UNL     1     -10.608   1.754 -15.054  0.00  0.00    +0.197 C 
BRANCH  21  22
ATOM     22  O   UNL     1      -9.595   0.895 -15.554  0.00  0.00    -0.390 OA
ATOM     23  H   UNL     1      -9.881   0.605 -16.438  0.00  0.00    +0.210 HD
ENDBRANCH  21  22
ENDBRANCH  11  21
TORSDOF 6
ENDMDL
MODEL 8
REMARK VINA RESULT:      -5.5      9.465     11.984
REMARK  Name = min_compound927.pdb
REMARK  8 active torsions:
REMARK  status: ('A' for Active; 'I' for Inactive)
REMARK    1  A    between atoms: _1  and  _16
REMARK    2  A    between atoms: _2  and  _10
REMARK    3  A    between atoms: _9  and  _11
REMARK    4  A    between atoms: _10  and  _13
REMARK    5  A    between atoms: _11  and  _15
REMARK    6  A    between atoms: _12  and  _15
REMARK    7  A    between atoms: _12  and  _19
REMARK    8  A    between atoms: _12  and  _20
REMARK                            x       y       z     vdW  Elec       q    Type
REMARK                         _______ _______ _______ _____ _____    ______ ____
ROOT
ATOM      1  C   UNL     1     -16.411  -2.759  -2.188  0.00  0.00    +0.280 A 
ATOM      2  C   UNL     1     -16.870  -1.666  -2.940  0.00  0.00    +0.107 A 
ATOM      3  C   UNL     1     -16.013  -0.602  -3.229  0.00  0.00    +0.037 A 
ATOM      4  N   UNL     1     -16.478   0.444  -4.039  0.00  0.00    -0.339 N 
ATOM      5  H   UNL     1     -17.475   0.608  -3.921  0.00  0.00    +0.146 HD
ATOM      6  C   UNL     1     -15.687   1.684  -4.032  0.00  0.00    +0.084 C 
ATOM      7  C   UNL     1     -14.209   1.338  -4.247  0.00  0.00    +0.028 C 
ATOM      8  C   UNL     1     -13.713   0.440  -3.120  0.00  0.00    +0.039 C 
ATOM      9  C   UNL     1     -14.671  -0.685  -2.822  0.00  0.00    -0.026 A 
ATOM     10  C   UNL     1     -14.221  -1.791  -2.076  0.00  0.00    +0.018 A 
ATOM     11  C   UNL     1     -15.079  -2.851  -1.749  0.00  0.00    +0.055 A 
ENDROOT
BRANCH   1  12
ATOM     12  N   UNL     1     -17.387  -3.788  -1.849  0.00  0.00    +0.080 N 
ATOM     13  O   UNL     1     -17.772  -3.844  -0.672  0.00  0.00    +0.041 OA
ATOM     14  O   UNL     1     -17.713  -4.582  -2.745  0.00  0.00    -0.576 OA
ENDBRANCH   1  12
BRANCH   6  15
ATOM     15  C   UNL     1     -16.216   2.630  -5.146  0.00  0.00    +0.103 C 
BRANCH  15  16
ATOM     16  N   UNL     1     -16.882   1.912  -6.244  0.00  0.00    -0.312 NA
ATOM     17  H   UNL     1     -17.637   2.482  -6.624  0.00  0.00    +0.122 HD
BRANCH  16  18
ATOM     18  C   UNL     1     -15.963   1.565  -7.344  0.00  0.00    +0.048 C 
ATOM     19  C   UNL     1     -16.349   2.403  -8.571  0.00  0.00    +0.023 C 
ATOM     20  C   UNL     1     -15.922   0.090  -7.615  0.00  0.00    +0.023 C 
ENDBRANCH  16  18
ENDBRANCH  15  16
ENDBRANCH   6  15
BRANCH  11  21
ATOM     21  C   UNL     1     -14.553  -4.018  -0.965  0.00  0.00    +0.197 C 
BRANCH  21  22
ATOM     22  O   UNL     1     -14.845  -3.817   0.409  0.00  0.00    -0.390 OA
ATOM     23  H   UNL     1     -14.885  -2.856   0.552  0.00  0.00    +0.210 HD
ENDBRANCH  21  22
ENDBRANCH  11  21
TORSDOF 6
ENDMDL
MODEL 9
REMARK VINA RESULT:      -5.5      2.512      3.786
REMARK  Name = min_compound927.pdb
REMARK  8 active torsions:
REMARK  status: ('A' for Active; 'I' for Inactive)
REMARK    1  A    between atoms: _1  and  _16
REMARK    2  A    between atoms: _2  and  _10
REMARK    3  A    between atoms: _9  and  _11
REMARK    4  A    between atoms: _10  and  _13
REMARK    5  A    between atoms: _11  and  _15
REMARK    6  A    between atoms: _12  and  _15
REMARK    7  A    between atoms: _12  and  _19
REMARK    8  A    between atoms: _12  and  _20
REMARK                            x       y       z     vdW  Elec       q    Type
REMARK                         _______ _______ _______ _____ _____    ______ ____
ROOT
ATOM      1  C   UNL     1     -15.783   4.653 -14.650  0.00  0.00    +0.280 A 
ATOM      2  C   UNL     1     -14.456   4.228 -14.488  0.00  0.00    +0.107 A 
ATOM      3  C   UNL     1     -13.808   3.539 -15.514  0.00  0.00    +0.037 A 
ATOM      4  N   UNL     1     -12.460   3.187 -15.352  0.00  0.00    -0.339 N 
ATOM      5  H   UNL     1     -12.228   2.993 -14.380  0.00  0.00    +0.146 HD
ATOM      6  C   UNL     1     -11.926   2.180 -16.281  0.00  0.00    +0.084 C 
ATOM      7  C   UNL     1     -12.298   2.573 -17.715  0.00  0.00    +0.028 C 
ATOM      8  C   UNL     1     -13.813   2.617 -17.868  0.00  0.00    +0.039 C 
ATOM      9  C   UNL     1     -14.481   3.350 -16.733  0.00  0.00    -0.026 A 
ATOM     10  C   UNL     1     -15.810   3.789 -16.886  0.00  0.00    +0.018 A 
ATOM     11  C   UNL     1     -16.485   4.452 -15.851  0.00  0.00    +0.055 A 
ENDROOT
BRANCH   1  12
ATOM     12  N   UNL     1     -16.423   5.285 -13.502  0.00  0.00    +0.080 N 
ATOM     13  O   UNL     1     -17.065   4.555 -12.733  0.00  0.00    +0.041 OA
ATOM     14  O   UNL     1     -16.342   6.520 -13.413  0.00  0.00    -0.576 OA
ENDBRANCH   1  12
BRANCH   6  15
ATOM     15  C   UNL     1     -10.384   2.090 -16.100  0.00  0.00    +0.103 C 
BRANCH  15  16
ATOM     16  N   UNL     1      -9.970   0.971 -15.238  0.00  0.00    -0.312 NA
ATOM     17  H   UNL     1     -10.660   0.828 -14.500  0.00  0.00    +0.122 HD
BRANCH  16  18
ATOM     18  C   UNL     1      -9.811  -0.295 -15.977  0.00  0.00    +0.048 C 
ATOM     19  C   UNL     1      -9.180   0.024 -17.340  0.00  0.00    +0.023 C 
ATOM     20  C   UNL     1     -11.093  -1.067 -16.077  0.00  0.00    +0.023 C 
ENDBRANCH  16  18
ENDBRANCH  15  16
ENDBRANCH   6  15
BRANCH  11  21
ATOM     21  C   UNL     1     -17.898   4.917 -16.064  0.00  0.00    +0.197 C 
BRANCH  21  22
ATOM     22  O   UNL     1     -17.916   5.855 -17.127  0.00  0.00    -0.390 OA
ATOM     23  H   UNL     1     -17.094   6.372 -17.064  0.00  0.00    +0.210 HD
ENDBRANCH  21  22
ENDBRANCH  11  21
TORSDOF 6
ENDMDL
