MODEL 1
REMARK VINA RESULT:      -6.2      0.000      0.000
REMARK  Name = min_compound914.pdb
REMARK  1 active torsions:
REMARK  status: ('A' for Active; 'I' for Inactive)
REMARK    1  A    between atoms: _7  and  _15
REMARK                            x       y       z     vdW  Elec       q    Type
REMARK                         _______ _______ _______ _____ _____    ______ ____
ROOT
ATOM      1  N   UNL     1     -14.587  -1.964  -4.986  0.00  0.00    -0.269 N 
ATOM      2  H   UNL     1     -14.087  -2.740  -5.389  0.00  0.00    +0.156 HD
ATOM      3  C   UNL     1     -14.960  -2.093  -3.651  0.00  0.00    +0.310 C 
ATOM      4  N   UNL     1     -14.541  -3.312  -3.153  0.00  0.00    -0.248 N 
ATOM      5  H   UNL     1     -14.041  -3.965  -3.728  0.00  0.00    +0.158 HD
ATOM      6  C   UNL     1     -14.775  -3.702  -1.863  0.00  0.00    +0.165 A 
ATOM      7  S   UNL     1     -14.154  -5.253  -1.494  0.00  0.00    -0.060 S 
ATOM      8  C   UNL     1     -14.753  -5.092   0.105  0.00  0.00    +0.068 A 
ATOM      9  C   UNL     1     -15.380  -3.871   0.239  0.00  0.00    +0.120 A 
ATOM     10  N   UNL     1     -15.389  -3.080  -0.892  0.00  0.00    -0.233 NA
ATOM     11  O   UNL     1     -15.572  -1.245  -3.018  0.00  0.00    -0.252 OA
ENDROOT
BRANCH   1  15
ATOM     12  C   UNL     1     -15.471   1.240  -7.591  0.00  0.00    +0.020 A 
ATOM     13  C   UNL     1     -16.425   0.282  -7.268  0.00  0.00    +0.043 A 
ATOM     14  C   UNL     1     -16.111  -0.770  -6.403  0.00  0.00    +0.043 A 
ATOM     15  C   UNL     1     -14.827  -0.873  -5.849  0.00  0.00    +0.036 A 
ATOM     16  C   UNL     1     -13.874   0.093  -6.180  0.00  0.00    +0.023 A 
ATOM     17 CL   UNL     1     -18.007   0.390  -7.938  0.00  0.00    -0.083 Cl
ATOM     18  C   UNL     1     -14.194   1.145  -7.045  0.00  0.00    +0.003 A 
ENDBRANCH   1  15
TORSDOF 1
ENDMDL
MODEL 2
REMARK VINA RESULT:      -6.1      2.087      2.550
REMARK  Name = min_compound914.pdb
REMARK  1 active torsions:
REMARK  status: ('A' for Active; 'I' for Inactive)
REMARK    1  A    between atoms: _7  and  _15
REMARK                            x       y       z     vdW  Elec       q    Type
REMARK                         _______ _______ _______ _____ _____    ______ ____
ROOT
ATOM      1  N   UNL     1     -14.925  -2.251  -3.694  0.00  0.00    -0.269 N 
ATOM      2  H   UNL     1     -15.530  -2.698  -4.365  0.00  0.00    +0.156 HD
ATOM      3  C   UNL     1     -14.558  -3.011  -2.587  0.00  0.00    +0.310 C 
ATOM      4  N   UNL     1     -15.129  -4.268  -2.658  0.00  0.00    -0.248 N 
ATOM      5  H   UNL     1     -15.715  -4.529  -3.429  0.00  0.00    +0.158 HD
ATOM      6  C   UNL     1     -14.936  -5.223  -1.698  0.00  0.00    +0.165 A 
ATOM      7  S   UNL     1     -15.750  -6.692  -2.021  0.00  0.00    -0.060 S 
ATOM      8  C   UNL     1     -15.120  -7.339  -0.562  0.00  0.00    +0.068 A 
ATOM      9  C   UNL     1     -14.337  -6.390   0.060  0.00  0.00    +0.120 A 
ATOM     10  N   UNL     1     -14.236  -5.179  -0.596  0.00  0.00    -0.233 NA
ATOM     11  O   UNL     1     -13.835  -2.616  -1.684  0.00  0.00    -0.252 OA
ENDROOT
BRANCH   1  15
ATOM     12  C   UNL     1     -13.830   1.687  -4.758  0.00  0.00    +0.020 A 
ATOM     13  C   UNL     1     -14.142   0.733  -5.721  0.00  0.00    +0.043 A 
ATOM     14  C   UNL     1     -14.502  -0.564  -5.347  0.00  0.00    +0.043 A 
ATOM     15  C   UNL     1     -14.554  -0.922  -3.992  0.00  0.00    +0.036 A 
ATOM     16  C   UNL     1     -14.238   0.041  -3.031  0.00  0.00    +0.023 A 
ATOM     17 CL   UNL     1     -14.084   1.152  -7.389  0.00  0.00    -0.083 Cl
ATOM     18  C   UNL     1     -13.879   1.339  -3.411  0.00  0.00    +0.003 A 
ENDBRANCH   1  15
TORSDOF 1
ENDMDL
MODEL 3
REMARK VINA RESULT:      -6.0      5.800      8.758
REMARK  Name = min_compound914.pdb
REMARK  1 active torsions:
REMARK  status: ('A' for Active; 'I' for Inactive)
REMARK    1  A    between atoms: _7  and  _15
REMARK                            x       y       z     vdW  Elec       q    Type
REMARK                         _______ _______ _______ _____ _____    ______ ____
ROOT
ATOM      1  N   UNL     1     -14.824   1.762  -7.979  0.00  0.00    -0.269 N 
ATOM      2  H   UNL     1     -14.003   1.902  -8.548  0.00  0.00    +0.156 HD
ATOM      3  C   UNL     1     -15.958   2.486  -8.338  0.00  0.00    +0.310 C 
ATOM      4  N   UNL     1     -15.694   3.270  -9.444  0.00  0.00    -0.248 N 
ATOM      5  H   UNL     1     -14.790   3.269  -9.879  0.00  0.00    +0.158 HD
ATOM      6  C   UNL     1     -16.634   4.086 -10.011  0.00  0.00    +0.165 A 
ATOM      7  S   UNL     1     -16.059   4.952 -11.371  0.00  0.00    -0.060 S 
ATOM      8  C   UNL     1     -17.603   5.681 -11.536  0.00  0.00    +0.068 A 
ATOM      9  C   UNL     1     -18.440   5.212 -10.546  0.00  0.00    +0.120 A 
ATOM     10  N   UNL     1     -17.878   4.298  -9.676  0.00  0.00    -0.233 NA
ATOM     11  O   UNL     1     -17.029   2.430  -7.751  0.00  0.00    -0.252 OA
ENDROOT
BRANCH   1  15
ATOM     12  C   UNL     1     -14.324  -0.832  -4.684  0.00  0.00    +0.020 A 
ATOM     13  C   UNL     1     -13.932   0.501  -4.627  0.00  0.00    +0.043 A 
ATOM     14  C   UNL     1     -14.107   1.342  -5.728  0.00  0.00    +0.043 A 
ATOM     15  C   UNL     1     -14.681   0.852  -6.910  0.00  0.00    +0.036 A 
ATOM     16  C   UNL     1     -15.072  -0.489  -6.960  0.00  0.00    +0.023 A 
ATOM     17 CL   UNL     1     -13.225   1.123  -3.186  0.00  0.00    -0.083 Cl
ATOM     18  C   UNL     1     -14.895  -1.327  -5.853  0.00  0.00    +0.003 A 
ENDBRANCH   1  15
TORSDOF 1
ENDMDL
MODEL 4
REMARK VINA RESULT:      -6.0     14.159     15.603
REMARK  Name = min_compound914.pdb
REMARK  1 active torsions:
REMARK  status: ('A' for Active; 'I' for Inactive)
REMARK    1  A    between atoms: _7  and  _15
REMARK                            x       y       z     vdW  Elec       q    Type
REMARK                         _______ _______ _______ _____ _____    ______ ____
ROOT
ATOM      1  N   UNL     1     -12.209   2.472 -18.144  0.00  0.00    -0.269 N 
ATOM      2  H   UNL     1     -12.453   2.360 -19.115  0.00  0.00    +0.156 HD
ATOM      3  C   UNL     1     -12.617   3.656 -17.535  0.00  0.00    +0.310 C 
ATOM      4  N   UNL     1     -13.299   4.448 -18.439  0.00  0.00    -0.248 N 
ATOM      5  H   UNL     1     -13.445   4.150 -19.385  0.00  0.00    +0.158 HD
ATOM      6  C   UNL     1     -13.814   5.671 -18.107  0.00  0.00    +0.165 A 
ATOM      7  S   UNL     1     -14.614   6.451 -19.403  0.00  0.00    -0.060 S 
ATOM      8  C   UNL     1     -14.959   7.775 -18.367  0.00  0.00    +0.068 A 
ATOM      9  C   UNL     1     -14.441   7.524 -17.114  0.00  0.00    +0.120 A 
ATOM     10  N   UNL     1     -13.786   6.317 -16.972  0.00  0.00    -0.233 NA
ATOM     11  O   UNL     1     -12.399   3.945 -16.367  0.00  0.00    -0.252 OA
ENDROOT
BRANCH   1  15
ATOM     12  C   UNL     1     -10.204  -0.786 -16.354  0.00  0.00    +0.020 A 
ATOM     13  C   UNL     1     -11.589  -0.667 -16.304  0.00  0.00    +0.043 A 
ATOM     14  C   UNL     1     -12.232   0.419 -16.903  0.00  0.00    +0.043 A 
ATOM     15  C   UNL     1     -11.488   1.406 -17.565  0.00  0.00    +0.036 A 
ATOM     16  C   UNL     1     -10.097   1.280 -17.611  0.00  0.00    +0.023 A 
ATOM     17 CL   UNL     1     -12.521  -1.868 -15.496  0.00  0.00    -0.083 Cl
ATOM     18  C   UNL     1      -9.458   0.189 -17.010  0.00  0.00    +0.003 A 
ENDBRANCH   1  15
TORSDOF 1
ENDMDL
MODEL 5
REMARK VINA RESULT:      -5.9      2.909      3.231
REMARK  Name = min_compound914.pdb
REMARK  1 active torsions:
REMARK  status: ('A' for Active; 'I' for Inactive)
REMARK    1  A    between atoms: _7  and  _15
REMARK                            x       y       z     vdW  Elec       q    Type
REMARK                         _______ _______ _______ _____ _____    ______ ____
ROOT
ATOM      1  N   UNL     1     -14.892  -2.092  -3.425  0.00  0.00    -0.269 N 
ATOM      2  H   UNL     1     -14.880  -2.637  -4.273  0.00  0.00    +0.156 HD
ATOM      3  C   UNL     1     -14.562  -2.764  -2.251  0.00  0.00    +0.310 C 
ATOM      4  N   UNL     1     -14.277  -4.088  -2.522  0.00  0.00    -0.248 N 
ATOM      5  H   UNL     1     -14.320  -4.449  -3.457  0.00  0.00    +0.158 HD
ATOM      6  C   UNL     1     -13.921  -4.981  -1.549  0.00  0.00    +0.165 A 
ATOM      7  S   UNL     1     -13.619  -6.557  -2.142  0.00  0.00    -0.060 S 
ATOM      8  C   UNL     1     -13.268  -7.071  -0.544  0.00  0.00    +0.068 A 
ATOM      9  C   UNL     1     -13.407  -6.006   0.321  0.00  0.00    +0.120 A 
ATOM     10  N   UNL     1     -13.781  -4.812  -0.261  0.00  0.00    -0.233 NA
ATOM     11  O   UNL     1     -14.532  -2.248  -1.144  0.00  0.00    -0.252 OA
ENDROOT
BRANCH   1  15
ATOM     12  C   UNL     1     -15.782   2.015  -3.847  0.00  0.00    +0.020 A 
ATOM     13  C   UNL     1     -14.483   1.571  -3.625  0.00  0.00    +0.043 A 
ATOM     14  C   UNL     1     -14.210   0.207  -3.489  0.00  0.00    +0.043 A 
ATOM     15  C   UNL     1     -15.246  -0.734  -3.574  0.00  0.00    +0.036 A 
ATOM     16  C   UNL     1     -16.548  -0.280  -3.796  0.00  0.00    +0.023 A 
ATOM     17 CL   UNL     1     -13.197   2.710  -3.518  0.00  0.00    -0.083 Cl
ATOM     18  C   UNL     1     -16.816   1.087  -3.933  0.00  0.00    +0.003 A 
ENDBRANCH   1  15
TORSDOF 1
ENDMDL
MODEL 6
REMARK VINA RESULT:      -5.9     14.651     16.853
REMARK  Name = min_compound914.pdb
REMARK  1 active torsions:
REMARK  status: ('A' for Active; 'I' for Inactive)
REMARK    1  A    between atoms: _7  and  _15
REMARK                            x       y       z     vdW  Elec       q    Type
REMARK                         _______ _______ _______ _____ _____    ______ ____
ROOT
ATOM      1  N   UNL     1     -12.516   1.417 -19.258  0.00  0.00    -0.269 N 
ATOM      2  H   UNL     1     -12.192   0.822 -20.003  0.00  0.00    +0.156 HD
ATOM      3  C   UNL     1     -13.595   2.247 -19.550  0.00  0.00    +0.310 C 
ATOM      4  N   UNL     1     -14.001   2.060 -20.858  0.00  0.00    -0.248 N 
ATOM      5  H   UNL     1     -13.539   1.401 -21.457  0.00  0.00    +0.158 HD
ATOM      6  C   UNL     1     -15.044   2.748 -21.412  0.00  0.00    +0.165 A 
ATOM      7  S   UNL     1     -15.348   2.334 -23.044  0.00  0.00    -0.060 S 
ATOM      8  C   UNL     1     -16.639   3.463 -23.071  0.00  0.00    +0.068 A 
ATOM      9  C   UNL     1     -16.743   4.070 -21.838  0.00  0.00    +0.120 A 
ATOM     10  N   UNL     1     -15.826   3.656 -20.892  0.00  0.00    -0.233 NA
ATOM     11  O   UNL     1     -14.103   3.027 -18.758  0.00  0.00    -0.252 OA
ENDROOT
BRANCH   1  15
ATOM     12  C   UNL     1     -10.406   1.269 -15.601  0.00  0.00    +0.020 A 
ATOM     13  C   UNL     1     -10.725   2.479 -16.209  0.00  0.00    +0.043 A 
ATOM     14  C   UNL     1     -11.423   2.505 -17.419  0.00  0.00    +0.043 A 
ATOM     15  C   UNL     1     -11.814   1.309 -18.037  0.00  0.00    +0.036 A 
ATOM     16  C   UNL     1     -11.490   0.098 -17.421  0.00  0.00    +0.023 A 
ATOM     17 CL   UNL     1     -10.254   3.959 -15.466  0.00  0.00    -0.083 Cl
ATOM     18  C   UNL     1     -10.791   0.077 -16.209  0.00  0.00    +0.003 A 
ENDBRANCH   1  15
TORSDOF 1
ENDMDL
MODEL 7
REMARK VINA RESULT:      -5.8     14.572     17.048
REMARK  Name = min_compound914.pdb
REMARK  1 active torsions:
REMARK  status: ('A' for Active; 'I' for Inactive)
REMARK    1  A    between atoms: _7  and  _15
REMARK                            x       y       z     vdW  Elec       q    Type
REMARK                         _______ _______ _______ _____ _____    ______ ____
ROOT
ATOM      1  N   UNL     1     -13.031   1.451 -18.854  0.00  0.00    -0.269 N 
ATOM      2  H   UNL     1     -13.351   0.533 -19.117  0.00  0.00    +0.156 HD
ATOM      3  C   UNL     1     -13.458   2.510 -19.651  0.00  0.00    +0.310 C 
ATOM      4  N   UNL     1     -14.265   2.044 -20.672  0.00  0.00    -0.248 N 
ATOM      5  H   UNL     1     -14.473   1.068 -20.766  0.00  0.00    +0.158 HD
ATOM      6  C   UNL     1     -14.824   2.872 -21.606  0.00  0.00    +0.165 A 
ATOM      7  S   UNL     1     -15.781   2.050 -22.762  0.00  0.00    -0.060 S 
ATOM      8  C   UNL     1     -16.117   3.551 -23.522  0.00  0.00    +0.068 A 
ATOM      9  C   UNL     1     -15.477   4.564 -22.840  0.00  0.00    +0.120 A 
ATOM     10  N   UNL     1     -14.738   4.168 -21.743  0.00  0.00    -0.233 NA
ATOM     11  O   UNL     1     -13.158   3.680 -19.467  0.00  0.00    -0.252 OA
ENDROOT
BRANCH   1  15
ATOM     12  C   UNL     1     -10.465   1.465 -15.499  0.00  0.00    +0.020 A 
ATOM     13  C   UNL     1     -10.436   0.435 -16.432  0.00  0.00    +0.043 A 
ATOM     14  C   UNL     1     -11.294   0.450 -17.535  0.00  0.00    +0.043 A 
ATOM     15  C   UNL     1     -12.197   1.507 -17.716  0.00  0.00    +0.036 A 
ATOM     16  C   UNL     1     -12.221   2.538 -16.773  0.00  0.00    +0.023 A 
ATOM     17 CL   UNL     1      -9.335  -0.872 -16.229  0.00  0.00    -0.083 Cl
ATOM     18  C   UNL     1     -11.359   2.519 -15.671  0.00  0.00    +0.003 A 
ENDBRANCH   1  15
TORSDOF 1
ENDMDL
MODEL 8
REMARK VINA RESULT:      -5.7      5.183      7.943
REMARK  Name = min_compound914.pdb
REMARK  1 active torsions:
REMARK  status: ('A' for Active; 'I' for Inactive)
REMARK    1  A    between atoms: _7  and  _15
REMARK                            x       y       z     vdW  Elec       q    Type
REMARK                         _______ _______ _______ _____ _____    ______ ____
ROOT
ATOM      1  N   UNL     1     -15.031   1.457  -6.865  0.00  0.00    -0.269 N 
ATOM      2  H   UNL     1     -14.339   1.366  -7.592  0.00  0.00    +0.156 HD
ATOM      3  C   UNL     1     -16.265   1.979  -7.244  0.00  0.00    +0.310 C 
ATOM      4  N   UNL     1     -16.266   2.270  -8.595  0.00  0.00    -0.248 N 
ATOM      5  H   UNL     1     -15.457   2.101  -9.164  0.00  0.00    +0.158 HD
ATOM      6  C   UNL     1     -17.353   2.796  -9.236  0.00  0.00    +0.165 A 
ATOM      7  S   UNL     1     -17.100   3.063 -10.907  0.00  0.00    -0.060 S 
ATOM      8  C   UNL     1     -18.702   3.664 -11.034  0.00  0.00    +0.068 A 
ATOM      9  C   UNL     1     -19.309   3.616  -9.797  0.00  0.00    +0.120 A 
ATOM     10  N   UNL     1     -18.531   3.118  -8.771  0.00  0.00    -0.233 NA
ATOM     11  O   UNL     1     -17.206   2.154  -6.484  0.00  0.00    -0.252 OA
ENDROOT
BRANCH   1  15
ATOM     12  C   UNL     1     -13.882   0.041  -3.055  0.00  0.00    +0.020 A 
ATOM     13  C   UNL     1     -14.459  -0.800  -4.001  0.00  0.00    +0.043 A 
ATOM     14  C   UNL     1     -14.831  -0.311  -5.255  0.00  0.00    +0.043 A 
ATOM     15  C   UNL     1     -14.628   1.038  -5.579  0.00  0.00    +0.036 A 
ATOM     16  C   UNL     1     -14.049   1.877  -4.624  0.00  0.00    +0.023 A 
ATOM     17 CL   UNL     1     -14.717  -2.460  -3.623  0.00  0.00    -0.083 Cl
ATOM     18  C   UNL     1     -13.677   1.382  -3.369  0.00  0.00    +0.003 A 
ENDBRANCH   1  15
TORSDOF 1
ENDMDL
MODEL 9
REMARK VINA RESULT:      -5.7     11.578     13.072
REMARK  Name = min_compound914.pdb
REMARK  1 active torsions:
REMARK  status: ('A' for Active; 'I' for Inactive)
REMARK    1  A    between atoms: _7  and  _15
REMARK                            x       y       z     vdW  Elec       q    Type
REMARK                         _______ _______ _______ _____ _____    ______ ____
ROOT
ATOM      1  N   UNL     1     -15.743   1.939 -15.514  0.00  0.00    -0.269 N 
ATOM      2  H   UNL     1     -15.891   1.000 -15.848  0.00  0.00    +0.156 HD
ATOM      3  C   UNL     1     -14.474   2.476 -15.713  0.00  0.00    +0.310 C 
ATOM      4  N   UNL     1     -13.662   1.560 -16.355  0.00  0.00    -0.248 N 
ATOM      5  H   UNL     1     -14.005   0.653 -16.614  0.00  0.00    +0.158 HD
ATOM      6  C   UNL     1     -12.360   1.825 -16.676  0.00  0.00    +0.165 A 
ATOM      7  S   UNL     1     -11.572   0.528 -17.467  0.00  0.00    -0.060 S 
ATOM      8  C   UNL     1     -10.142   1.473 -17.550  0.00  0.00    +0.068 A 
ATOM      9  C   UNL     1     -10.371   2.703 -16.971  0.00  0.00    +0.120 A 
ATOM     10  N   UNL     1     -11.644   2.898 -16.472  0.00  0.00    -0.233 NA
ATOM     11  O   UNL     1     -14.134   3.598 -15.365  0.00  0.00    -0.252 OA
ENDROOT
BRANCH   1  15
ATOM     12  C   UNL     1     -18.993   3.743 -13.509  0.00  0.00    +0.020 A 
ATOM     13  C   UNL     1     -17.910   3.218 -12.813  0.00  0.00    +0.043 A 
ATOM     14  C   UNL     1     -16.844   2.626 -13.496  0.00  0.00    +0.043 A 
ATOM     15  C   UNL     1     -16.854   2.553 -14.896  0.00  0.00    +0.036 A 
ATOM     16  C   UNL     1     -17.947   3.081 -15.588  0.00  0.00    +0.023 A 
ATOM     17 CL   UNL     1     -17.878   3.298 -11.093  0.00  0.00    -0.083 Cl
ATOM     18  C   UNL     1     -19.011   3.674 -14.899  0.00  0.00    +0.003 A 
ENDBRANCH   1  15
TORSDOF 1
ENDMDL
