MODEL 1
REMARK VINA RESULT:      -5.5      0.000      0.000
REMARK  Name = min_compound9.pdb
REMARK  0 active torsions:
REMARK  status: ('A' for Active; 'I' for Inactive)
REMARK                            x       y       z     vdW  Elec       q    Type
REMARK                         _______ _______ _______ _____ _____    ______ ____
ROOT
ATOM      1  C   UNL     1     -11.349  -1.071 -16.244  0.00  0.00    +0.023 A 
ATOM      2  C   UNL     1     -10.165  -0.709 -15.620  0.00  0.00    +0.113 A 
ATOM      3  N   UNL     1      -9.743   0.568 -15.489  0.00  0.00    -0.237 NA
ATOM      4  C   UNL     1     -10.543   1.523 -16.006  0.00  0.00    +0.167 A 
ATOM      5  N   UNL     1     -10.105   2.828 -15.865  0.00  0.00    -0.265 N 
ATOM      6  H   UNL     1      -9.232   2.983 -15.385  0.00  0.00    +0.156 HD
ATOM      7  C   UNL     1     -10.808   3.888 -16.346  0.00  0.00    +0.256 C 
ATOM      8  O   UNL     1     -10.408   5.043 -16.211  0.00  0.00    -0.272 OA
ATOM      9  C   UNL     1     -12.111   3.547 -17.073  0.00  0.00    +0.325 C 
ATOM     10  O   UNL     1     -12.577   2.210 -17.175  0.00  0.00    -0.479 OA
ATOM     11  C   UNL     1     -11.748   1.263 -16.650  0.00  0.00    +0.161 A 
ATOM     12  C   UNL     1     -12.153  -0.063 -16.766  0.00  0.00    +0.051 A 
ENDROOT
TORSDOF 0
ENDMDL
MODEL 2
REMARK VINA RESULT:      -5.3      1.992      2.787
REMARK  Name = min_compound9.pdb
REMARK  0 active torsions:
REMARK  status: ('A' for Active; 'I' for Inactive)
REMARK                            x       y       z     vdW  Elec       q    Type
REMARK                         _______ _______ _______ _____ _____    ______ ____
ROOT
ATOM      1  C   UNL     1      -9.949   0.224 -15.556  0.00  0.00    +0.023 A 
ATOM      2  C   UNL     1     -10.078  -0.597 -16.665  0.00  0.00    +0.113 A 
ATOM      3  N   UNL     1     -10.845  -0.298 -17.737  0.00  0.00    -0.237 NA
ATOM      4  C   UNL     1     -11.512   0.873 -17.693  0.00  0.00    +0.167 A 
ATOM      5  N   UNL     1     -12.293   1.172 -18.796  0.00  0.00    -0.265 N 
ATOM      6  H   UNL     1     -12.310   0.509 -19.556  0.00  0.00    +0.156 HD
ATOM      7  C   UNL     1     -13.025   2.315 -18.882  0.00  0.00    +0.256 C 
ATOM      8  O   UNL     1     -13.712   2.570 -19.869  0.00  0.00    -0.272 OA
ATOM      9  C   UNL     1     -12.946   3.248 -17.670  0.00  0.00    +0.325 C 
ATOM     10  O   UNL     1     -12.107   2.956 -16.562  0.00  0.00    -0.479 OA
ATOM     11  C   UNL     1     -11.449   1.764 -16.627  0.00  0.00    +0.161 A 
ATOM     12  C   UNL     1     -10.648   1.427 -15.541  0.00  0.00    +0.051 A 
ENDROOT
TORSDOF 0
ENDMDL
MODEL 3
REMARK VINA RESULT:      -5.3      1.825      2.444
REMARK  Name = min_compound9.pdb
REMARK  0 active torsions:
REMARK  status: ('A' for Active; 'I' for Inactive)
REMARK                            x       y       z     vdW  Elec       q    Type
REMARK                         _______ _______ _______ _____ _____    ______ ____
ROOT
ATOM      1  C   UNL     1     -10.090  -0.599 -15.811  0.00  0.00    +0.023 A 
ATOM      2  C   UNL     1     -11.222  -1.042 -16.478  0.00  0.00    +0.113 A 
ATOM      3  N   UNL     1     -12.255  -0.241 -16.821  0.00  0.00    -0.237 NA
ATOM      4  C   UNL     1     -12.148   1.060 -16.480  0.00  0.00    +0.167 A 
ATOM      5  N   UNL     1     -13.208   1.874 -16.838  0.00  0.00    -0.265 N 
ATOM      6  H   UNL     1     -13.981   1.452 -17.330  0.00  0.00    +0.156 HD
ATOM      7  C   UNL     1     -13.236   3.202 -16.549  0.00  0.00    +0.256 C 
ATOM      8  O   UNL     1     -14.183   3.915 -16.876  0.00  0.00    -0.272 OA
ATOM      9  C   UNL     1     -12.024   3.742 -15.785  0.00  0.00    +0.325 C 
ATOM     10  O   UNL     1     -10.920   2.911 -15.461  0.00  0.00    -0.479 OA
ATOM     11  C   UNL     1     -11.055   1.600 -15.811  0.00  0.00    +0.161 A 
ATOM     12  C   UNL     1     -10.009   0.748 -15.474  0.00  0.00    +0.051 A 
ENDROOT
TORSDOF 0
ENDMDL
MODEL 4
REMARK VINA RESULT:      -5.2      2.392      4.150
REMARK  Name = min_compound9.pdb
REMARK  0 active torsions:
REMARK  status: ('A' for Active; 'I' for Inactive)
REMARK                            x       y       z     vdW  Elec       q    Type
REMARK                         _______ _______ _______ _____ _____    ______ ____
ROOT
ATOM      1  C   UNL     1     -13.349   3.699 -16.391  0.00  0.00    +0.023 A 
ATOM      2  C   UNL     1     -13.669   3.146 -17.621  0.00  0.00    +0.113 A 
ATOM      3  N   UNL     1     -13.042   2.070 -18.148  0.00  0.00    -0.237 NA
ATOM      4  C   UNL     1     -12.054   1.527 -17.408  0.00  0.00    +0.167 A 
ATOM      5  N   UNL     1     -11.420   0.423 -17.953  0.00  0.00    -0.265 N 
ATOM      6  H   UNL     1     -11.736   0.094 -18.852  0.00  0.00    +0.156 HD
ATOM      7  C   UNL     1     -10.401  -0.218 -17.320  0.00  0.00    +0.256 C 
ATOM      8  O   UNL     1      -9.849  -1.199 -17.814  0.00  0.00    -0.272 OA
ATOM      9  C   UNL     1      -9.984   0.369 -15.969  0.00  0.00    +0.325 C 
ATOM     10  O   UNL     1     -10.668   1.473 -15.395  0.00  0.00    -0.479 OA
ATOM     11  C   UNL     1     -11.659   2.008 -16.165  0.00  0.00    +0.161 A 
ATOM     12  C   UNL     1     -12.325   3.116 -15.651  0.00  0.00    +0.051 A 
ENDROOT
TORSDOF 0
ENDMDL
MODEL 5
REMARK VINA RESULT:      -5.1      1.693      3.783
REMARK  Name = min_compound9.pdb
REMARK  0 active torsions:
REMARK  status: ('A' for Active; 'I' for Inactive)
REMARK                            x       y       z     vdW  Elec       q    Type
REMARK                         _______ _______ _______ _____ _____    ______ ____
ROOT
ATOM      1  C   UNL     1     -11.948   4.460 -17.313  0.00  0.00    +0.023 A 
ATOM      2  C   UNL     1     -11.037   4.577 -16.275  0.00  0.00    +0.113 A 
ATOM      3  N   UNL     1     -10.415   3.525 -15.697  0.00  0.00    -0.237 NA
ATOM      4  C   UNL     1     -10.722   2.304 -16.180  0.00  0.00    +0.167 A 
ATOM      5  N   UNL     1     -10.078   1.233 -15.585  0.00  0.00    -0.265 N 
ATOM      6  H   UNL     1      -9.425   1.429 -14.842  0.00  0.00    +0.156 HD
ATOM      7  C   UNL     1     -10.299  -0.053 -15.967  0.00  0.00    +0.256 C 
ATOM      8  O   UNL     1      -9.719  -0.995 -15.432  0.00  0.00    -0.272 OA
ATOM      9  C   UNL     1     -11.322  -0.246 -17.091  0.00  0.00    +0.325 C 
ATOM     10  O   UNL     1     -11.944   0.859 -17.727  0.00  0.00    -0.479 OA
ATOM     11  C   UNL     1     -11.622   2.082 -17.217  0.00  0.00    +0.161 A 
ATOM     12  C   UNL     1     -12.243   3.187 -17.791  0.00  0.00    +0.051 A 
ENDROOT
TORSDOF 0
ENDMDL
MODEL 6
REMARK VINA RESULT:      -5.0     12.499     13.209
REMARK  Name = min_compound9.pdb
REMARK  0 active torsions:
REMARK  status: ('A' for Active; 'I' for Inactive)
REMARK                            x       y       z     vdW  Elec       q    Type
REMARK                         _______ _______ _______ _____ _____    ______ ____
ROOT
ATOM      1  C   UNL     1     -14.153   1.415  -6.144  0.00  0.00    +0.023 A 
ATOM      2  C   UNL     1     -14.399   0.282  -6.905  0.00  0.00    +0.113 A 
ATOM      3  N   UNL     1     -14.573  -0.952  -6.382  0.00  0.00    -0.237 NA
ATOM      4  C   UNL     1     -14.496  -1.053  -5.039  0.00  0.00    +0.167 A 
ATOM      5  N   UNL     1     -14.679  -2.320  -4.511  0.00  0.00    -0.265 N 
ATOM      6  H   UNL     1     -14.862  -3.076  -5.153  0.00  0.00    +0.156 HD
ATOM      7  C   UNL     1     -14.620  -2.568  -3.175  0.00  0.00    +0.256 C 
ATOM      8  O   UNL     1     -14.787  -3.697  -2.720  0.00  0.00    -0.272 OA
ATOM      9  C   UNL     1     -14.320  -1.357  -2.287  0.00  0.00    +0.325 C 
ATOM     10  O   UNL     1     -14.179  -0.053  -2.831  0.00  0.00    -0.479 OA
ATOM     11  C   UNL     1     -14.254   0.022  -4.191  0.00  0.00    +0.161 A 
ATOM     12  C   UNL     1     -14.081   1.278  -4.762  0.00  0.00    +0.051 A 
ENDROOT
TORSDOF 0
ENDMDL
MODEL 7
REMARK VINA RESULT:      -4.9      2.118      4.503
REMARK  Name = min_compound9.pdb
REMARK  0 active torsions:
REMARK  status: ('A' for Active; 'I' for Inactive)
REMARK                            x       y       z     vdW  Elec       q    Type
REMARK                         _______ _______ _______ _____ _____    ______ ____
ROOT
ATOM      1  C   UNL     1     -11.550   5.415 -17.412  0.00  0.00    +0.023 A 
ATOM      2  C   UNL     1     -12.616   4.894 -18.128  0.00  0.00    +0.113 A 
ATOM      3  N   UNL     1     -12.960   3.587 -18.121  0.00  0.00    -0.237 NA
ATOM      4  C   UNL     1     -12.201   2.768 -17.364  0.00  0.00    +0.167 A 
ATOM      5  N   UNL     1     -12.562   1.432 -17.360  0.00  0.00    -0.265 N 
ATOM      6  H   UNL     1     -13.362   1.158 -17.910  0.00  0.00    +0.156 HD
ATOM      7  C   UNL     1     -11.879   0.496 -16.649  0.00  0.00    +0.256 C 
ATOM      8  O   UNL     1     -12.212  -0.688 -16.652  0.00  0.00    -0.272 OA
ATOM      9  C   UNL     1     -10.671   1.010 -15.861  0.00  0.00    +0.325 C 
ATOM     10  O   UNL     1     -10.334   2.388 -15.834  0.00  0.00    -0.479 OA
ATOM     11  C   UNL     1     -11.112   3.194 -16.611  0.00  0.00    +0.161 A 
ATOM     12  C   UNL     1     -10.786   4.546 -16.639  0.00  0.00    +0.051 A 
ENDROOT
TORSDOF 0
ENDMDL
MODEL 8
REMARK VINA RESULT:      -4.9     11.575     12.100
REMARK  Name = min_compound9.pdb
REMARK  0 active torsions:
REMARK  status: ('A' for Active; 'I' for Inactive)
REMARK                            x       y       z     vdW  Elec       q    Type
REMARK                         _______ _______ _______ _____ _____    ______ ____
ROOT
ATOM      1  C   UNL     1     -13.743   0.484  -3.080  0.00  0.00    +0.023 A 
ATOM      2  C   UNL     1     -14.383  -0.739  -2.956  0.00  0.00    +0.113 A 
ATOM      3  N   UNL     1     -15.091  -1.323  -3.949  0.00  0.00    -0.237 NA
ATOM      4  C   UNL     1     -15.161  -0.649  -5.115  0.00  0.00    +0.167 A 
ATOM      5  N   UNL     1     -15.884  -1.255  -6.128  0.00  0.00    -0.265 N 
ATOM      6  H   UNL     1     -16.303  -2.152  -5.936  0.00  0.00    +0.156 HD
ATOM      7  C   UNL     1     -16.043  -0.684  -7.352  0.00  0.00    +0.256 C 
ATOM      8  O   UNL     1     -16.686  -1.235  -8.243  0.00  0.00    -0.272 OA
ATOM      9  C   UNL     1     -15.382   0.685  -7.537  0.00  0.00    +0.325 C 
ATOM     10  O   UNL     1     -14.603   1.279  -6.510  0.00  0.00    -0.479 OA
ATOM     11  C   UNL     1     -14.554   0.582  -5.339  0.00  0.00    +0.161 A 
ATOM     12  C   UNL     1     -13.832   1.154  -4.296  0.00  0.00    +0.051 A 
ENDROOT
TORSDOF 0
ENDMDL
MODEL 9
REMARK VINA RESULT:      -4.6     11.728     12.224
REMARK  Name = min_compound9.pdb
REMARK  0 active torsions:
REMARK  status: ('A' for Active; 'I' for Inactive)
REMARK                            x       y       z     vdW  Elec       q    Type
REMARK                         _______ _______ _______ _____ _____    ______ ____
ROOT
ATOM      1  C   UNL     1     -13.719   1.851  -3.569  0.00  0.00    +0.023 A 
ATOM      2  C   UNL     1     -14.802   2.693  -3.765  0.00  0.00    +0.113 A 
ATOM      3  N   UNL     1     -15.796   2.447  -4.647  0.00  0.00    -0.237 NA
ATOM      4  C   UNL     1     -15.697   1.310  -5.365  0.00  0.00    +0.167 A 
ATOM      5  N   UNL     1     -16.720   1.064  -6.264  0.00  0.00    -0.265 N 
ATOM      6  H   UNL     1     -17.469   1.738  -6.322  0.00  0.00    +0.156 HD
ATOM      7  C   UNL     1     -16.743  -0.040  -7.057  0.00  0.00    +0.256 C 
ATOM      8  O   UNL     1     -17.660  -0.247  -7.850  0.00  0.00    -0.272 OA
ATOM      9  C   UNL     1     -15.554  -0.992  -6.906  0.00  0.00    +0.325 C 
ATOM     10  O   UNL     1     -14.531  -0.758  -5.950  0.00  0.00    -0.479 OA
ATOM     11  C   UNL     1     -14.651   0.402  -5.242  0.00  0.00    +0.161 A 
ATOM     12  C   UNL     1     -13.645   0.684  -4.323  0.00  0.00    +0.051 A 
ENDROOT
TORSDOF 0
ENDMDL
