MODEL 1
REMARK VINA RESULT:      -6.9      0.000      0.000
REMARK  Name = min_compound938.pdb
REMARK  11 active torsions:
REMARK  status: ('A' for Active; 'I' for Inactive)
REMARK    1  A    between atoms: _1  and  _19
REMARK    2  A    between atoms: _3  and  _6
REMARK    3  A    between atoms: _5  and  _18
REMARK    4  A    between atoms: _7  and  _13
REMARK    5  A    between atoms: _9  and  _17
REMARK    6  A    between atoms: _11  and  _20
REMARK    7  A    between atoms: _12  and  _14
REMARK    8  A    between atoms: _13  and  _15
REMARK    9  A    between atoms: _15  and  _16
REMARK   10  A    between atoms: _19  and  _21
REMARK   11  A    between atoms: _21  and  _22
REMARK                            x       y       z     vdW  Elec       q    Type
REMARK                         _______ _______ _______ _____ _____    ______ ____
ROOT
ATOM      1  C   UNL     1     -13.189   5.988 -17.285  0.00  0.00    -0.038 A 
ATOM      2  C   UNL     1     -14.261   6.909 -17.220  0.00  0.00    +0.004 A 
ATOM      3  C   UNL     1     -15.548   6.596 -16.658  0.00  0.00    +0.004 A 
ATOM      4  C   UNL     1     -15.815   5.406 -15.957  0.00  0.00    -0.047 A 
ATOM      5  C   UNL     1     -17.129   5.115 -15.293  0.00  0.00    +0.044 C 
ATOM      6  C   UNL     1     -14.663   4.562 -15.897  0.00  0.00    -0.040 A 
ATOM      7  C   UNL     1     -14.420   4.020 -14.480  0.00  0.00    +0.044 C 
ATOM      8  C   UNL     1     -13.488   4.665 -16.805  0.00  0.00    -0.011 A 
ENDROOT
BRANCH   8   9
ATOM      9  C   UNL     1     -12.617   3.390 -17.226  0.00  0.00    -0.011 A 
ATOM     10  C   UNL     1     -11.498   2.878 -16.380  0.00  0.00    -0.040 A 
ATOM     11  C   UNL     1     -10.337   3.843 -16.077  0.00  0.00    +0.044 C 
ATOM     12  C   UNL     1     -11.083   1.509 -16.307  0.00  0.00    -0.047 A 
ATOM     13  C   UNL     1     -10.205   0.930 -15.238  0.00  0.00    +0.044 C 
ATOM     14  C   UNL     1     -11.475   0.791 -17.442  0.00  0.00    +0.004 A 
ATOM     15  C   UNL     1     -12.219   1.383 -18.511  0.00  0.00    +0.004 A 
ATOM     16  C   UNL     1     -12.840   2.667 -18.446  0.00  0.00    -0.038 A 
BRANCH  16  17
ATOM     17  C   UNL     1     -13.718   3.246 -19.515  0.00  0.00    +0.050 C 
BRANCH  17  18
ATOM     18  C   UNL     1     -13.511   2.180 -20.615  0.00  0.00    +0.082 C 
BRANCH  18  19
ATOM     19  N   UNL     1     -13.334   1.194 -21.671  0.00  0.00    -0.330 NA
ATOM     20  H   UNL     1     -13.817   0.333 -21.416  0.00  0.00    +0.118 HD
ATOM     21  H   UNL     1     -13.722   1.556 -22.542  0.00  0.00    +0.118 HD
ENDBRANCH  18  19
ENDBRANCH  17  18
ENDBRANCH  16  17
ENDBRANCH   8   9
BRANCH   1  22
ATOM     22  C   UNL     1     -11.876   6.279 -17.949  0.00  0.00    +0.050 C 
BRANCH  22  23
ATOM     23  C   UNL     1     -11.842   6.725 -19.381  0.00  0.00    +0.082 C 
BRANCH  23  24
ATOM     24  N   UNL     1     -11.808   7.170 -20.813  0.00  0.00    -0.330 NA
ATOM     25  H   UNL     1     -11.515   6.392 -21.404  0.00  0.00    +0.118 HD
ATOM     26  H   UNL     1     -12.738   7.480 -21.095  0.00  0.00    +0.118 HD
ENDBRANCH  23  24
ENDBRANCH  22  23
ENDBRANCH   1  22
TORSDOF 7
ENDMDL
MODEL 2
REMARK VINA RESULT:      -6.7      1.364      4.380
REMARK  Name = min_compound938.pdb
REMARK  11 active torsions:
REMARK  status: ('A' for Active; 'I' for Inactive)
REMARK    1  A    between atoms: _1  and  _19
REMARK    2  A    between atoms: _3  and  _6
REMARK    3  A    between atoms: _5  and  _18
REMARK    4  A    between atoms: _7  and  _13
REMARK    5  A    between atoms: _9  and  _17
REMARK    6  A    between atoms: _11  and  _20
REMARK    7  A    between atoms: _12  and  _14
REMARK    8  A    between atoms: _13  and  _15
REMARK    9  A    between atoms: _15  and  _16
REMARK   10  A    between atoms: _19  and  _21
REMARK   11  A    between atoms: _21  and  _22
REMARK                            x       y       z     vdW  Elec       q    Type
REMARK                         _______ _______ _______ _____ _____    ______ ____
ROOT
ATOM      1  C   UNL     1     -11.899   4.760 -17.096  0.00  0.00    -0.038 A 
ATOM      2  C   UNL     1     -10.728   4.678 -16.305  0.00  0.00    +0.004 A 
ATOM      3  C   UNL     1     -10.235   3.452 -15.736  0.00  0.00    +0.004 A 
ATOM      4  C   UNL     1     -10.762   2.187 -16.055  0.00  0.00    -0.047 A 
ATOM      5  C   UNL     1     -10.193   0.900 -15.535  0.00  0.00    +0.044 C 
ATOM      6  C   UNL     1     -11.842   2.288 -16.986  0.00  0.00    -0.040 A 
ATOM      7  C   UNL     1     -11.707   1.277 -18.135  0.00  0.00    +0.044 C 
ATOM      8  C   UNL     1     -12.624   3.526 -17.249  0.00  0.00    -0.011 A 
ENDROOT
BRANCH   8   9
ATOM      9  C   UNL     1     -14.168   3.493 -17.667  0.00  0.00    -0.011 A 
ATOM     10  C   UNL     1     -15.259   3.321 -16.662  0.00  0.00    -0.040 A 
ATOM     11  C   UNL     1     -15.240   2.042 -15.804  0.00  0.00    +0.044 C 
ATOM     12  C   UNL     1     -16.582   3.858 -16.786  0.00  0.00    -0.047 A 
ATOM     13  C   UNL     1     -17.570   3.982 -15.664  0.00  0.00    +0.044 C 
ATOM     14  C   UNL     1     -16.907   4.124 -18.120  0.00  0.00    +0.004 A 
ATOM     15  C   UNL     1     -15.994   3.896 -19.197  0.00  0.00    +0.004 A 
ATOM     16  C   UNL     1     -14.605   3.609 -19.029  0.00  0.00    -0.038 A 
BRANCH  16  17
ATOM     17  C   UNL     1     -13.617   3.485 -20.151  0.00  0.00    +0.050 C 
BRANCH  17  18
ATOM     18  C   UNL     1     -14.212   2.257 -20.876  0.00  0.00    +0.082 C 
BRANCH  18  19
ATOM     19  N   UNL     1     -14.749   1.102 -21.581  0.00  0.00    -0.330 NA
ATOM     20  H   UNL     1     -14.025   0.389 -21.665  0.00  0.00    +0.118 HD
ATOM     21  H   UNL     1     -15.540   0.724 -21.059  0.00  0.00    +0.118 HD
ENDBRANCH  18  19
ENDBRANCH  17  18
ENDBRANCH  16  17
ENDBRANCH   8   9
BRANCH   1  22
ATOM     22  C   UNL     1     -12.467   6.047 -17.617  0.00  0.00    +0.050 C 
BRANCH  22  23
ATOM     23  C   UNL     1     -11.972   6.616 -18.913  0.00  0.00    +0.082 C 
BRANCH  23  24
ATOM     24  N   UNL     1     -11.476   7.185 -20.209  0.00  0.00    -0.330 NA
ATOM     25  H   UNL     1     -10.844   7.963 -20.019  0.00  0.00    +0.118 HD
ATOM     26  H   UNL     1     -10.978   6.463 -20.730  0.00  0.00    +0.118 HD
ENDBRANCH  23  24
ENDBRANCH  22  23
ENDBRANCH   1  22
TORSDOF 7
ENDMDL
MODEL 3
REMARK VINA RESULT:      -6.7      2.259      5.362
REMARK  Name = min_compound938.pdb
REMARK  11 active torsions:
REMARK  status: ('A' for Active; 'I' for Inactive)
REMARK    1  A    between atoms: _1  and  _19
REMARK    2  A    between atoms: _3  and  _6
REMARK    3  A    between atoms: _5  and  _18
REMARK    4  A    between atoms: _7  and  _13
REMARK    5  A    between atoms: _9  and  _17
REMARK    6  A    between atoms: _11  and  _20
REMARK    7  A    between atoms: _12  and  _14
REMARK    8  A    between atoms: _13  and  _15
REMARK    9  A    between atoms: _15  and  _16
REMARK   10  A    between atoms: _19  and  _21
REMARK   11  A    between atoms: _21  and  _22
REMARK                            x       y       z     vdW  Elec       q    Type
REMARK                         _______ _______ _______ _____ _____    ______ ____
ROOT
ATOM      1  C   UNL     1     -13.476   1.771 -16.822  0.00  0.00    -0.038 A 
ATOM      2  C   UNL     1     -13.166   0.471 -16.358  0.00  0.00    +0.004 A 
ATOM      3  C   UNL     1     -11.928  -0.203 -16.642  0.00  0.00    +0.004 A 
ATOM      4  C   UNL     1     -10.830   0.427 -17.257  0.00  0.00    -0.047 A 
ATOM      5  C   UNL     1      -9.507  -0.246 -17.474  0.00  0.00    +0.044 C 
ATOM      6  C   UNL     1     -11.116   1.792 -17.569  0.00  0.00    -0.040 A 
ATOM      7  C   UNL     1      -9.978   2.730 -17.136  0.00  0.00    +0.044 C 
ATOM      8  C   UNL     1     -12.483   2.371 -17.673  0.00  0.00    -0.011 A 
ENDROOT
BRANCH   8   9
ATOM      9  C   UNL     1     -12.830   3.576 -18.668  0.00  0.00    -0.011 A 
ATOM     10  C   UNL     1     -12.574   5.002 -18.307  0.00  0.00    -0.040 A 
ATOM     11  C   UNL     1     -13.271   5.553 -17.050  0.00  0.00    +0.044 C 
ATOM     12  C   UNL     1     -12.265   6.043 -19.242  0.00  0.00    -0.047 A 
ATOM     13  C   UNL     1     -11.687   7.380 -18.883  0.00  0.00    +0.044 C 
ATOM     14  C   UNL     1     -12.703   5.724 -20.531  0.00  0.00    +0.004 A 
ATOM     15  C   UNL     1     -13.356   4.490 -20.842  0.00  0.00    +0.004 A 
ATOM     16  C   UNL     1     -13.421   3.369 -19.960  0.00  0.00    -0.038 A 
BRANCH  16  17
ATOM     17  C   UNL     1     -13.999   2.032 -20.318  0.00  0.00    +0.050 C 
BRANCH  17  18
ATOM     18  C   UNL     1     -13.338   1.835 -21.701  0.00  0.00    +0.082 C 
BRANCH  18  19
ATOM     19  N   UNL     1     -12.688   1.644 -22.990  0.00  0.00    -0.330 NA
ATOM     20  H   UNL     1     -11.760   1.248 -22.846  0.00  0.00    +0.118 HD
ATOM     21  H   UNL     1     -13.245   1.008 -23.560  0.00  0.00    +0.118 HD
ENDBRANCH  18  19
ENDBRANCH  17  18
ENDBRANCH  16  17
ENDBRANCH   8   9
BRANCH   1  22
ATOM     22  C   UNL     1     -14.799   2.444 -16.604  0.00  0.00    +0.050 C 
BRANCH  22  23
ATOM     23  C   UNL     1     -15.110   3.079 -15.281  0.00  0.00    +0.082 C 
BRANCH  23  24
ATOM     24  N   UNL     1     -15.420   3.713 -13.958  0.00  0.00    -0.330 NA
ATOM     25  H   UNL     1     -16.406   3.973 -13.929  0.00  0.00    +0.118 HD
ATOM     26  H   UNL     1     -15.221   3.051 -13.208  0.00  0.00    +0.118 HD
ENDBRANCH  23  24
ENDBRANCH  22  23
ENDBRANCH   1  22
TORSDOF 7
ENDMDL
MODEL 4
REMARK VINA RESULT:      -6.1      1.735      4.721
REMARK  Name = min_compound938.pdb
REMARK  11 active torsions:
REMARK  status: ('A' for Active; 'I' for Inactive)
REMARK    1  A    between atoms: _1  and  _19
REMARK    2  A    between atoms: _3  and  _6
REMARK    3  A    between atoms: _5  and  _18
REMARK    4  A    between atoms: _7  and  _13
REMARK    5  A    between atoms: _9  and  _17
REMARK    6  A    between atoms: _11  and  _20
REMARK    7  A    between atoms: _12  and  _14
REMARK    8  A    between atoms: _13  and  _15
REMARK    9  A    between atoms: _15  and  _16
REMARK   10  A    between atoms: _19  and  _21
REMARK   11  A    between atoms: _21  and  _22
REMARK                            x       y       z     vdW  Elec       q    Type
REMARK                         _______ _______ _______ _____ _____    ______ ____
ROOT
ATOM      1  C   UNL     1     -11.850   5.321 -17.097  0.00  0.00    -0.038 A 
ATOM      2  C   UNL     1     -10.509   4.982 -16.795  0.00  0.00    +0.004 A 
ATOM      3  C   UNL     1     -10.124   3.763 -16.135  0.00  0.00    +0.004 A 
ATOM      4  C   UNL     1     -11.018   2.706 -15.884  0.00  0.00    -0.047 A 
ATOM      5  C   UNL     1     -10.602   1.398 -15.278  0.00  0.00    +0.044 C 
ATOM      6  C   UNL     1     -12.335   3.011 -16.349  0.00  0.00    -0.040 A 
ATOM      7  C   UNL     1     -12.947   1.850 -17.147  0.00  0.00    +0.044 C 
ATOM      8  C   UNL     1     -12.838   4.382 -16.635  0.00  0.00    -0.011 A 
ENDROOT
BRANCH   8   9
ATOM      9  C   UNL     1     -14.373   4.791 -16.437  0.00  0.00    -0.011 A 
ATOM     10  C   UNL     1     -14.947   5.093 -15.092  0.00  0.00    -0.040 A 
ATOM     11  C   UNL     1     -14.880   3.985 -14.026  0.00  0.00    +0.044 C 
ATOM     12  C   UNL     1     -16.026   6.003 -14.845  0.00  0.00    -0.047 A 
ATOM     13  C   UNL     1     -16.389   6.565 -13.503  0.00  0.00    +0.044 C 
ATOM     14  C   UNL     1     -16.806   6.200 -15.989  0.00  0.00    +0.004 A 
ATOM     15  C   UNL     1     -16.515   5.569 -17.240  0.00  0.00    +0.004 A 
ATOM     16  C   UNL     1     -15.299   4.879 -17.530  0.00  0.00    -0.038 A 
BRANCH  16  17
ATOM     17  C   UNL     1     -14.935   4.317 -18.873  0.00  0.00    +0.050 C 
BRANCH  17  18
ATOM     18  C   UNL     1     -16.350   3.991 -19.401  0.00  0.00    +0.082 C 
BRANCH  18  19
ATOM     19  N   UNL     1     -17.696   3.702 -19.876  0.00  0.00    -0.330 NA
ATOM     20  H   UNL     1     -18.357   3.800 -19.106  0.00  0.00    +0.118 HD
ATOM     21  H   UNL     1     -17.940   4.356 -20.620  0.00  0.00    +0.118 HD
ENDBRANCH  18  19
ENDBRANCH  17  18
ENDBRANCH  16  17
ENDBRANCH   8   9
BRANCH   1  22
ATOM     22  C   UNL     1     -12.265   6.628 -17.704  0.00  0.00    +0.050 C 
BRANCH  22  23
ATOM     23  C   UNL     1     -11.825   6.984 -19.093  0.00  0.00    +0.082 C 
BRANCH  23  24
ATOM     24  N   UNL     1     -11.385   7.340 -20.482  0.00  0.00    -0.330 NA
ATOM     25  H   UNL     1     -10.366   7.383 -20.515  0.00  0.00    +0.118 HD
ATOM     26  H   UNL     1     -11.716   6.631 -21.136  0.00  0.00    +0.118 HD
ENDBRANCH  23  24
ENDBRANCH  22  23
ENDBRANCH   1  22
TORSDOF 7
ENDMDL
MODEL 5
REMARK VINA RESULT:      -6.0     10.601     13.029
REMARK  Name = min_compound938.pdb
REMARK  11 active torsions:
REMARK  status: ('A' for Active; 'I' for Inactive)
REMARK    1  A    between atoms: _1  and  _19
REMARK    2  A    between atoms: _3  and  _6
REMARK    3  A    between atoms: _5  and  _18
REMARK    4  A    between atoms: _7  and  _13
REMARK    5  A    between atoms: _9  and  _17
REMARK    6  A    between atoms: _11  and  _20
REMARK    7  A    between atoms: _12  and  _14
REMARK    8  A    between atoms: _13  and  _15
REMARK    9  A    between atoms: _15  and  _16
REMARK   10  A    between atoms: _19  and  _21
REMARK   11  A    between atoms: _21  and  _22
REMARK                            x       y       z     vdW  Elec       q    Type
REMARK                         _______ _______ _______ _____ _____    ______ ____
ROOT
ATOM      1  C   UNL     1     -17.478   4.016  -6.172  0.00  0.00    -0.038 A 
ATOM      2  C   UNL     1     -17.522   4.921  -7.259  0.00  0.00    +0.004 A 
ATOM      3  C   UNL     1     -17.276   4.540  -8.625  0.00  0.00    +0.004 A 
ATOM      4  C   UNL     1     -17.146   3.202  -9.041  0.00  0.00    -0.047 A 
ATOM      5  C   UNL     1     -16.980   2.795 -10.475  0.00  0.00    +0.044 C 
ATOM      6  C   UNL     1     -17.270   2.297  -7.941  0.00  0.00    -0.040 A 
ATOM      7  C   UNL     1     -18.215   1.128  -8.263  0.00  0.00    +0.044 C 
ATOM      8  C   UNL     1     -17.100   2.669  -6.511  0.00  0.00    -0.011 A 
ENDROOT
BRANCH   8   9
ATOM      9  C   UNL     1     -16.529   1.646  -5.420  0.00  0.00    -0.011 A 
ATOM     10  C   UNL     1     -15.068   1.523  -5.136  0.00  0.00    -0.040 A 
ATOM     11  C   UNL     1     -14.148   1.127  -6.305  0.00  0.00    +0.044 C 
ATOM     12  C   UNL     1     -14.506   1.155  -3.870  0.00  0.00    -0.047 A 
ATOM     13  C   UNL     1     -13.072   1.346  -3.477  0.00  0.00    +0.044 C 
ATOM     14  C   UNL     1     -15.425   0.455  -3.082  0.00  0.00    +0.004 A 
ATOM     15  C   UNL     1     -16.761   0.180  -3.514  0.00  0.00    +0.004 A 
ATOM     16  C   UNL     1     -17.376   0.773  -4.658  0.00  0.00    -0.038 A 
BRANCH  16  17
ATOM     17  C   UNL     1     -18.811   0.582  -5.052  0.00  0.00    +0.050 C 
BRANCH  17  18
ATOM     18  C   UNL     1     -18.927  -0.945  -4.845  0.00  0.00    +0.082 C 
BRANCH  18  19
ATOM     19  N   UNL     1     -19.017  -2.381  -4.626  0.00  0.00    -0.330 NA
ATOM     20  H   UNL     1     -19.774  -2.578  -3.972  0.00  0.00    +0.118 HD
ATOM     21  H   UNL     1     -19.203  -2.849  -5.513  0.00  0.00    +0.118 HD
ENDBRANCH  18  19
ENDBRANCH  17  18
ENDBRANCH  16  17
ENDBRANCH   8   9
BRANCH   1  22
ATOM     22  C   UNL     1     -17.644   4.423  -4.738  0.00  0.00    +0.050 C 
BRANCH  22  23
ATOM     23  C   UNL     1     -16.800   5.525  -4.169  0.00  0.00    +0.082 C 
BRANCH  23  24
ATOM     24  N   UNL     1     -15.956   6.626  -3.599  0.00  0.00    -0.330 NA
ATOM     25  H   UNL     1     -16.329   7.528  -3.896  0.00  0.00    +0.118 HD
ATOM     26  H   UNL     1     -15.969   6.572  -2.580  0.00  0.00    +0.118 HD
ENDBRANCH  23  24
ENDBRANCH  22  23
ENDBRANCH   1  22
TORSDOF 7
ENDMDL
MODEL 6
REMARK VINA RESULT:      -6.0      1.919      4.727
REMARK  Name = min_compound938.pdb
REMARK  11 active torsions:
REMARK  status: ('A' for Active; 'I' for Inactive)
REMARK    1  A    between atoms: _1  and  _19
REMARK    2  A    between atoms: _3  and  _6
REMARK    3  A    between atoms: _5  and  _18
REMARK    4  A    between atoms: _7  and  _13
REMARK    5  A    between atoms: _9  and  _17
REMARK    6  A    between atoms: _11  and  _20
REMARK    7  A    between atoms: _12  and  _14
REMARK    8  A    between atoms: _13  and  _15
REMARK    9  A    between atoms: _15  and  _16
REMARK   10  A    between atoms: _19  and  _21
REMARK   11  A    between atoms: _21  and  _22
REMARK                            x       y       z     vdW  Elec       q    Type
REMARK                         _______ _______ _______ _____ _____    ______ ____
ROOT
ATOM      1  C   UNL     1     -13.870   4.313 -16.610  0.00  0.00    -0.038 A 
ATOM      2  C   UNL     1     -13.808   3.376 -15.552  0.00  0.00    +0.004 A 
ATOM      3  C   UNL     1     -12.722   2.452 -15.367  0.00  0.00    +0.004 A 
ATOM      4  C   UNL     1     -11.529   2.505 -16.111  0.00  0.00    -0.047 A 
ATOM      5  C   UNL     1     -10.358   1.601 -15.861  0.00  0.00    +0.044 C 
ATOM      6  C   UNL     1     -11.553   3.569 -17.066  0.00  0.00    -0.040 A 
ATOM      7  C   UNL     1     -10.256   4.392 -17.042  0.00  0.00    +0.044 C 
ATOM      8  C   UNL     1     -12.786   4.243 -17.555  0.00  0.00    -0.011 A 
ENDROOT
BRANCH   8   9
ATOM      9  C   UNL     1     -12.905   4.844 -19.034  0.00  0.00    -0.011 A 
ATOM     10  C   UNL     1     -12.311   6.163 -19.404  0.00  0.00    -0.040 A 
ATOM     11  C   UNL     1     -12.790   7.402 -18.628  0.00  0.00    +0.044 C 
ATOM     12  C   UNL     1     -11.826   6.507 -20.708  0.00  0.00    -0.047 A 
ATOM     13  C   UNL     1     -10.939   7.677 -21.016  0.00  0.00    +0.044 C 
ATOM     14  C   UNL     1     -12.399   5.704 -21.700  0.00  0.00    +0.004 A 
ATOM     15  C   UNL     1     -13.333   4.662 -21.404  0.00  0.00    +0.004 A 
ATOM     16  C   UNL     1     -13.601   4.168 -20.092  0.00  0.00    -0.038 A 
BRANCH  16  17
ATOM     17  C   UNL     1     -14.489   2.999 -19.783  0.00  0.00    +0.050 C 
BRANCH  17  18
ATOM     18  C   UNL     1     -13.919   1.977 -20.793  0.00  0.00    +0.082 C 
BRANCH  18  19
ATOM     19  N   UNL     1     -13.353   1.025 -21.737  0.00  0.00    -0.330 NA
ATOM     20  H   UNL     1     -13.909   1.023 -22.592  0.00  0.00    +0.118 HD
ATOM     21  H   UNL     1     -12.394   1.292 -21.956  0.00  0.00    +0.118 HD
ENDBRANCH  18  19
ENDBRANCH  17  18
ENDBRANCH  16  17
ENDBRANCH   8   9
BRANCH   1  22
ATOM     22  C   UNL     1     -15.040   5.218 -16.860  0.00  0.00    +0.050 C 
BRANCH  22  23
ATOM     23  C   UNL     1     -15.178   6.496 -16.088  0.00  0.00    +0.082 C 
BRANCH  23  24
ATOM     24  N   UNL     1     -15.316   7.775 -15.317  0.00  0.00    -0.330 NA
ATOM     25  H   UNL     1     -14.441   7.976 -14.832  0.00  0.00    +0.118 HD
ATOM     26  H   UNL     1     -15.532   8.538 -15.958  0.00  0.00    +0.118 HD
ENDBRANCH  23  24
ENDBRANCH  22  23
ENDBRANCH   1  22
TORSDOF 7
ENDMDL
MODEL 7
REMARK VINA RESULT:      -5.9      2.599      5.926
REMARK  Name = min_compound938.pdb
REMARK  11 active torsions:
REMARK  status: ('A' for Active; 'I' for Inactive)
REMARK    1  A    between atoms: _1  and  _19
REMARK    2  A    between atoms: _3  and  _6
REMARK    3  A    between atoms: _5  and  _18
REMARK    4  A    between atoms: _7  and  _13
REMARK    5  A    between atoms: _9  and  _17
REMARK    6  A    between atoms: _11  and  _20
REMARK    7  A    between atoms: _12  and  _14
REMARK    8  A    between atoms: _13  and  _15
REMARK    9  A    between atoms: _15  and  _16
REMARK   10  A    between atoms: _19  and  _21
REMARK   11  A    between atoms: _21  and  _22
REMARK                            x       y       z     vdW  Elec       q    Type
REMARK                         _______ _______ _______ _____ _____    ______ ____
ROOT
ATOM      1  C   UNL     1     -14.145   4.954 -18.081  0.00  0.00    -0.038 A 
ATOM      2  C   UNL     1     -12.938   5.100 -18.805  0.00  0.00    +0.004 A 
ATOM      3  C   UNL     1     -11.633   5.019 -18.204  0.00  0.00    +0.004 A 
ATOM      4  C   UNL     1     -11.419   4.610 -16.875  0.00  0.00    -0.047 A 
ATOM      5  C   UNL     1     -10.056   4.438 -16.273  0.00  0.00    +0.044 C 
ATOM      6  C   UNL     1     -12.651   4.310 -16.214  0.00  0.00    -0.040 A 
ATOM      7  C   UNL     1     -12.584   2.978 -15.451  0.00  0.00    +0.044 C 
ATOM      8  C   UNL     1     -13.990   4.780 -16.660  0.00  0.00    -0.011 A 
ENDROOT
BRANCH   8   9
ATOM      9  C   UNL     1     -15.180   5.080 -15.632  0.00  0.00    -0.011 A 
ATOM     10  C   UNL     1     -15.985   3.988 -15.010  0.00  0.00    -0.040 A 
ATOM     11  C   UNL     1     -16.749   3.042 -15.954  0.00  0.00    +0.044 C 
ATOM     12  C   UNL     1     -16.596   4.053 -13.715  0.00  0.00    -0.047 A 
ATOM     13  C   UNL     1     -17.113   2.874 -12.946  0.00  0.00    +0.044 C 
ATOM     14  C   UNL     1     -16.790   5.375 -13.304  0.00  0.00    +0.004 A 
ATOM     15  C   UNL     1     -16.393   6.497 -14.097  0.00  0.00    +0.004 A 
ATOM     16  C   UNL     1     -15.560   6.411 -15.254  0.00  0.00    -0.038 A 
BRANCH  16  17
ATOM     17  C   UNL     1     -15.043   7.590 -16.023  0.00  0.00    +0.050 C 
BRANCH  17  18
ATOM     18  C   UNL     1     -15.536   8.729 -15.102  0.00  0.00    +0.082 C 
BRANCH  18  19
ATOM     19  N   UNL     1     -15.990   9.822 -14.255  0.00  0.00    -0.330 NA
ATOM     20  H   UNL     1     -16.758  10.311 -14.714  0.00  0.00    +0.118 HD
ATOM     21  H   UNL     1     -16.310   9.449 -13.361  0.00  0.00    +0.118 HD
ENDBRANCH  18  19
ENDBRANCH  17  18
ENDBRANCH  16  17
ENDBRANCH   8   9
BRANCH   1  22
ATOM     22  C   UNL     1     -15.507   5.126 -18.684  0.00  0.00    +0.050 C 
BRANCH  22  23
ATOM     23  C   UNL     1     -15.967   4.204 -19.774  0.00  0.00    +0.082 C 
BRANCH  23  24
ATOM     24  N   UNL     1     -16.427   3.282 -20.864  0.00  0.00    -0.330 NA
ATOM     25  H   UNL     1     -16.011   2.360 -20.728  0.00  0.00    +0.118 HD
ATOM     26  H   UNL     1     -17.444   3.204 -20.838  0.00  0.00    +0.118 HD
ENDBRANCH  23  24
ENDBRANCH  22  23
ENDBRANCH   1  22
TORSDOF 7
ENDMDL
MODEL 8
REMARK VINA RESULT:      -5.8      2.351      4.755
REMARK  Name = min_compound938.pdb
REMARK  11 active torsions:
REMARK  status: ('A' for Active; 'I' for Inactive)
REMARK    1  A    between atoms: _1  and  _19
REMARK    2  A    between atoms: _3  and  _6
REMARK    3  A    between atoms: _5  and  _18
REMARK    4  A    between atoms: _7  and  _13
REMARK    5  A    between atoms: _9  and  _17
REMARK    6  A    between atoms: _11  and  _20
REMARK    7  A    between atoms: _12  and  _14
REMARK    8  A    between atoms: _13  and  _15
REMARK    9  A    between atoms: _15  and  _16
REMARK   10  A    between atoms: _19  and  _21
REMARK   11  A    between atoms: _21  and  _22
REMARK                            x       y       z     vdW  Elec       q    Type
REMARK                         _______ _______ _______ _____ _____    ______ ____
ROOT
ATOM      1  C   UNL     1     -15.386   3.665 -18.094  0.00  0.00    -0.038 A 
ATOM      2  C   UNL     1     -16.401   4.053 -19.000  0.00  0.00    +0.004 A 
ATOM      3  C   UNL     1     -16.191   4.207 -20.415  0.00  0.00    +0.004 A 
ATOM      4  C   UNL     1     -15.007   3.816 -21.066  0.00  0.00    -0.047 A 
ATOM      5  C   UNL     1     -14.817   3.891 -22.552  0.00  0.00    +0.044 C 
ATOM      6  C   UNL     1     -14.057   3.273 -20.146  0.00  0.00    -0.040 A 
ATOM      7  C   UNL     1     -13.444   1.961 -20.659  0.00  0.00    +0.044 C 
ATOM      8  C   UNL     1     -14.080   3.492 -18.674  0.00  0.00    -0.011 A 
ENDROOT
BRANCH   8   9
ATOM      9  C   UNL     1     -12.745   3.538 -17.793  0.00  0.00    -0.011 A 
ATOM     10  C   UNL     1     -12.038   2.296 -17.357  0.00  0.00    -0.040 A 
ATOM     11  C   UNL     1     -12.829   1.293 -16.498  0.00  0.00    +0.044 C 
ATOM     12  C   UNL     1     -10.627   2.191 -17.133  0.00  0.00    -0.047 A 
ATOM     13  C   UNL     1      -9.866   0.903 -17.024  0.00  0.00    +0.044 C 
ATOM     14  C   UNL     1     -10.051   3.439 -16.879  0.00  0.00    +0.004 A 
ATOM     15  C   UNL     1     -10.808   4.653 -16.875  0.00  0.00    +0.004 A 
ATOM     16  C   UNL     1     -12.149   4.767 -17.351  0.00  0.00    -0.038 A 
BRANCH  16  17
ATOM     17  C   UNL     1     -12.910   6.055 -17.460  0.00  0.00    +0.050 C 
BRANCH  17  18
ATOM     18  C   UNL     1     -12.208   6.659 -18.697  0.00  0.00    +0.082 C 
BRANCH  18  19
ATOM     19  N   UNL     1     -11.528   7.245 -19.842  0.00  0.00    -0.330 NA
ATOM     20  H   UNL     1     -11.842   6.784 -20.696  0.00  0.00    +0.118 HD
ATOM     21  H   UNL     1     -11.745   8.240 -19.894  0.00  0.00    +0.118 HD
ENDBRANCH  18  19
ENDBRANCH  17  18
ENDBRANCH  16  17
ENDBRANCH   8   9
BRANCH   1  22
ATOM     22  C   UNL     1     -15.576   3.589 -16.608  0.00  0.00    +0.050 C 
BRANCH  22  23
ATOM     23  C   UNL     1     -16.904   3.184 -16.041  0.00  0.00    +0.082 C 
BRANCH  23  24
ATOM     24  N   UNL     1     -18.233   2.779 -15.474  0.00  0.00    -0.330 NA
ATOM     25  H   UNL     1     -18.939   2.806 -16.210  0.00  0.00    +0.118 HD
ATOM     26  H   UNL     1     -18.168   1.832 -15.100  0.00  0.00    +0.118 HD
ENDBRANCH  23  24
ENDBRANCH  22  23
ENDBRANCH   1  22
TORSDOF 7
ENDMDL
MODEL 9
REMARK VINA RESULT:      -5.7     12.798     15.417
REMARK  Name = min_compound938.pdb
REMARK  11 active torsions:
REMARK  status: ('A' for Active; 'I' for Inactive)
REMARK    1  A    between atoms: _1  and  _19
REMARK    2  A    between atoms: _3  and  _6
REMARK    3  A    between atoms: _5  and  _18
REMARK    4  A    between atoms: _7  and  _13
REMARK    5  A    between atoms: _9  and  _17
REMARK    6  A    between atoms: _11  and  _20
REMARK    7  A    between atoms: _12  and  _14
REMARK    8  A    between atoms: _13  and  _15
REMARK    9  A    between atoms: _15  and  _16
REMARK   10  A    between atoms: _19  and  _21
REMARK   11  A    between atoms: _21  and  _22
REMARK                            x       y       z     vdW  Elec       q    Type
REMARK                         _______ _______ _______ _____ _____    ______ ____
ROOT
ATOM      1  C   UNL     1     -15.488   1.204  -4.995  0.00  0.00    -0.038 A 
ATOM      2  C   UNL     1     -14.870   1.203  -6.268  0.00  0.00    +0.004 A 
ATOM      3  C   UNL     1     -15.166   0.242  -7.298  0.00  0.00    +0.004 A 
ATOM      4  C   UNL     1     -16.224  -0.680  -7.210  0.00  0.00    -0.047 A 
ATOM      5  C   UNL     1     -16.592  -1.623  -8.318  0.00  0.00    +0.044 C 
ATOM      6  C   UNL     1     -16.936  -0.547  -5.978  0.00  0.00    -0.040 A 
ATOM      7  C   UNL     1     -18.457  -0.528  -6.193  0.00  0.00    +0.044 C 
ATOM      8  C   UNL     1     -16.405   0.121  -4.759  0.00  0.00    -0.011 A 
ENDROOT
BRANCH   8   9
ATOM      9  C   UNL     1     -16.820  -0.335  -3.282  0.00  0.00    -0.011 A 
ATOM     10  C   UNL     1     -18.152  -0.003  -2.693  0.00  0.00    -0.040 A 
ATOM     11  C   UNL     1     -18.523   1.487  -2.571  0.00  0.00    +0.044 C 
ATOM     12  C   UNL     1     -18.846  -0.804  -1.730  0.00  0.00    -0.047 A 
ATOM     13  C   UNL     1     -20.299  -0.667  -1.383  0.00  0.00    +0.044 C 
ATOM     14  C   UNL     1     -17.973  -1.644  -1.032  0.00  0.00    +0.004 A 
ATOM     15  C   UNL     1     -16.568  -1.686  -1.294  0.00  0.00    +0.004 A 
ATOM     16  C   UNL     1     -15.941  -1.076  -2.423  0.00  0.00    -0.038 A 
BRANCH  16  17
ATOM     17  C   UNL     1     -14.488  -1.213  -2.770  0.00  0.00    +0.050 C 
BRANCH  17  18
ATOM     18  C   UNL     1     -14.092  -2.321  -1.769  0.00  0.00    +0.082 C 
BRANCH  18  19
ATOM     19  N   UNL     1     -13.701  -3.378  -0.848  0.00  0.00    -0.330 NA
ATOM     20  H   UNL     1     -13.062  -4.019  -1.318  0.00  0.00    +0.118 HD
ATOM     21  H   UNL     1     -13.238  -2.968  -0.037  0.00  0.00    +0.118 HD
ENDBRANCH  18  19
ENDBRANCH  17  18
ENDBRANCH  16  17
ENDBRANCH   8   9
BRANCH   1  22
ATOM     22  C   UNL     1     -15.120   2.147  -3.888  0.00  0.00    +0.050 C 
BRANCH  22  23
ATOM     23  C   UNL     1     -15.667   3.543  -3.879  0.00  0.00    +0.082 C 
BRANCH  23  24
ATOM     24  N   UNL     1     -16.214   4.940  -3.869  0.00  0.00    -0.330 NA
ATOM     25  H   UNL     1     -15.689   5.506  -3.203  0.00  0.00    +0.118 HD
ATOM     26  H   UNL     1     -16.128   5.345  -4.802  0.00  0.00    +0.118 HD
ENDBRANCH  23  24
ENDBRANCH  22  23
ENDBRANCH   1  22
TORSDOF 7
ENDMDL
