MODEL 1
REMARK VINA RESULT:      -6.3      0.000      0.000
REMARK  Name = min_compound958.pdb
REMARK  8 active torsions:
REMARK  status: ('A' for Active; 'I' for Inactive)
REMARK    1  A    between atoms: _8  and  _15
REMARK    2  A    between atoms: _9  and  _10
REMARK    3  A    between atoms: _10  and  _12
REMARK    4  A    between atoms: _12  and  _16
REMARK    5  A    between atoms: _14  and  _15
REMARK    6  A    between atoms: _14  and  _18
REMARK    7  A    between atoms: _16  and  _17
REMARK    8  A    between atoms: _18  and  _19
REMARK                            x       y       z     vdW  Elec       q    Type
REMARK                         _______ _______ _______ _____ _____    ______ ____
ROOT
ATOM      1  C   UNL     1     -11.363  -0.915 -16.062  0.00  0.00    +0.005 C 
ATOM      2  C   UNL     1      -9.895  -0.612 -16.009  0.00  0.00    +0.005 C 
ATOM      3  C   UNL     1     -10.026   0.895 -15.277  0.00  0.00    +0.042 C 
ATOM      4  C   UNL     1     -10.847   1.854 -16.092  0.00  0.00    -0.013 C 
ATOM      5  S   UNL     1     -10.788   3.561 -15.965  0.00  0.00    -0.106 S 
ATOM      6  C   UNL     1     -11.534   3.739 -17.520  0.00  0.00    +0.152 C 
ATOM      7  C   UNL     1     -12.310   2.596 -17.761  0.00  0.00    +0.155 C 
ATOM      8  C   UNL     1     -11.815   1.457 -16.980  0.00  0.00    -0.044 C 
ATOM      9  C   UNL     1     -12.177  -0.011 -17.069  0.00  0.00    +0.032 C 
ENDROOT
BRANCH   6  10
ATOM     10  N   UNL     1     -11.507   4.988 -18.184  0.00  0.00    -0.313 N 
ATOM     11  H   UNL     1     -10.645   5.141 -18.702  0.00  0.00    +0.149 HD
BRANCH  10  12
ATOM     12  C   UNL     1     -12.197   6.190 -18.022  0.00  0.00    +0.131 C 
ATOM     13  S   UNL     1     -13.652   6.155 -17.195  0.00  0.00    -0.019 S 
BRANCH  12  14
ATOM     14  N   UNL     1     -11.812   7.379 -18.607  0.00  0.00    -0.330 N 
ATOM     15  H   UNL     1     -11.786   8.251 -18.092  0.00  0.00    +0.147 HD
ATOM     16  C   UNL     1     -11.444   7.224 -20.053  0.00  0.00    +0.127 C 
ENDBRANCH  12  14
ENDBRANCH  10  12
ENDBRANCH   6  10
BRANCH   7  17
ATOM     17  C   UNL     1     -13.393   2.510 -18.736  0.00  0.00    +0.317 C 
ATOM     18  O   UNL     1     -14.507   2.982 -18.546  0.00  0.00    -0.250 OA
BRANCH  17  19
ATOM     19  O   UNL     1     -12.989   1.946 -19.914  0.00  0.00    -0.464 OA
BRANCH  19  20
ATOM     20  C   UNL     1     -13.989   1.876 -20.941  0.00  0.00    +0.229 C 
ATOM     21  C   UNL     1     -13.343   1.616 -22.292  0.00  0.00    +0.048 C 
ENDBRANCH  19  20
ENDBRANCH  17  19
ENDBRANCH   7  17
TORSDOF 6
ENDMDL
MODEL 2
REMARK VINA RESULT:      -6.3      3.030      3.788
REMARK  Name = min_compound958.pdb
REMARK  8 active torsions:
REMARK  status: ('A' for Active; 'I' for Inactive)
REMARK    1  A    between atoms: _8  and  _15
REMARK    2  A    between atoms: _9  and  _10
REMARK    3  A    between atoms: _10  and  _12
REMARK    4  A    between atoms: _12  and  _16
REMARK    5  A    between atoms: _14  and  _15
REMARK    6  A    between atoms: _14  and  _18
REMARK    7  A    between atoms: _16  and  _17
REMARK    8  A    between atoms: _18  and  _19
REMARK                            x       y       z     vdW  Elec       q    Type
REMARK                         _______ _______ _______ _____ _____    ______ ____
ROOT
ATOM      1  C   UNL     1      -9.770   0.121 -17.367  0.00  0.00    +0.005 C 
ATOM      2  C   UNL     1     -10.360  -0.733 -16.283  0.00  0.00    +0.005 C 
ATOM      3  C   UNL     1     -11.972  -0.401 -16.620  0.00  0.00    +0.042 C 
ATOM      4  C   UNL     1     -12.284   1.065 -16.520  0.00  0.00    -0.013 C 
ATOM      5  S   UNL     1     -13.846   1.729 -16.283  0.00  0.00    -0.106 S 
ATOM      6  C   UNL     1     -13.165   3.237 -15.762  0.00  0.00    +0.152 C 
ATOM      7  C   UNL     1     -11.900   3.367 -16.354  0.00  0.00    +0.155 C 
ATOM      8  C   UNL     1     -11.349   2.053 -16.699  0.00  0.00    -0.044 C 
ATOM      9  C   UNL     1      -9.951   1.673 -17.142  0.00  0.00    +0.032 C 
ENDROOT
BRANCH   6  10
ATOM     10  N   UNL     1     -13.971   4.190 -15.097  0.00  0.00    -0.313 N 
ATOM     11  H   UNL     1     -14.019   4.036 -14.093  0.00  0.00    +0.149 HD
BRANCH  10  12
ATOM     12  C   UNL     1     -14.987   5.057 -15.503  0.00  0.00    +0.131 C 
ATOM     13  S   UNL     1     -16.469   4.946 -14.734  0.00  0.00    -0.019 S 
BRANCH  12  14
ATOM     14  N   UNL     1     -14.878   5.913 -16.581  0.00  0.00    -0.330 N 
ATOM     15  H   UNL     1     -14.677   5.581 -17.517  0.00  0.00    +0.147 HD
ATOM     16  C   UNL     1     -15.093   7.350 -16.206  0.00  0.00    +0.127 C 
ENDBRANCH  12  14
ENDBRANCH  10  12
ENDBRANCH   6  10
BRANCH   7  17
ATOM     17  C   UNL     1     -11.175   4.625 -16.508  0.00  0.00    +0.317 C 
ATOM     18  O   UNL     1      -9.985   4.751 -16.246  0.00  0.00    -0.250 OA
BRANCH  17  19
ATOM     19  O   UNL     1     -11.944   5.603 -17.074  0.00  0.00    -0.464 OA
BRANCH  19  20
ATOM     20  C   UNL     1     -11.837   5.725 -18.500  0.00  0.00    +0.229 C 
ATOM     21  C   UNL     1     -11.837   7.190 -18.907  0.00  0.00    +0.048 C 
ENDBRANCH  19  20
ENDBRANCH  17  19
ENDBRANCH   7  17
TORSDOF 6
ENDMDL
MODEL 3
REMARK VINA RESULT:      -6.1      2.057      2.929
REMARK  Name = min_compound958.pdb
REMARK  8 active torsions:
REMARK  status: ('A' for Active; 'I' for Inactive)
REMARK    1  A    between atoms: _8  and  _15
REMARK    2  A    between atoms: _9  and  _10
REMARK    3  A    between atoms: _10  and  _12
REMARK    4  A    between atoms: _12  and  _16
REMARK    5  A    between atoms: _14  and  _15
REMARK    6  A    between atoms: _14  and  _18
REMARK    7  A    between atoms: _16  and  _17
REMARK    8  A    between atoms: _18  and  _19
REMARK                            x       y       z     vdW  Elec       q    Type
REMARK                         _______ _______ _______ _____ _____    ______ ____
ROOT
ATOM      1  C   UNL     1     -11.516  -0.987 -16.232  0.00  0.00    +0.005 C 
ATOM      2  C   UNL     1     -10.171  -0.652 -16.806  0.00  0.00    +0.005 C 
ATOM      3  C   UNL     1      -9.881   0.708 -15.861  0.00  0.00    +0.042 C 
ATOM      4  C   UNL     1     -10.937   1.762 -16.042  0.00  0.00    -0.013 C 
ATOM      5  S   UNL     1     -10.743   3.425 -15.680  0.00  0.00    -0.106 S 
ATOM      6  C   UNL     1     -12.106   3.837 -16.670  0.00  0.00    +0.152 C 
ATOM      7  C   UNL     1     -12.961   2.726 -16.713  0.00  0.00    +0.155 C 
ATOM      8  C   UNL     1     -12.220   1.489 -16.441  0.00  0.00    -0.044 C 
ATOM      9  C   UNL     1     -12.654   0.045 -16.594  0.00  0.00    +0.032 C 
ENDROOT
BRANCH   6  10
ATOM     10  N   UNL     1     -12.324   5.179 -17.060  0.00  0.00    -0.313 N 
ATOM     11  H   UNL     1     -12.430   5.809 -16.267  0.00  0.00    +0.149 HD
BRANCH  10  12
ATOM     12  C   UNL     1     -12.780   5.790 -18.229  0.00  0.00    +0.131 C 
ATOM     13  S   UNL     1     -13.506   7.292 -18.097  0.00  0.00    -0.019 S 
BRANCH  12  14
ATOM     14  N   UNL     1     -12.778   5.176 -19.465  0.00  0.00    -0.330 N 
ATOM     15  H   UNL     1     -12.187   4.380 -19.672  0.00  0.00    +0.147 HD
ATOM     16  C   UNL     1     -13.732   5.813 -20.432  0.00  0.00    +0.127 C 
ENDBRANCH  12  14
ENDBRANCH  10  12
ENDBRANCH   6  10
BRANCH   7  17
ATOM     17  C   UNL     1     -14.372   2.770 -17.085  0.00  0.00    +0.317 C 
ATOM     18  O   UNL     1     -14.764   3.129 -18.188  0.00  0.00    -0.250 OA
BRANCH  17  19
ATOM     19  O   UNL     1     -15.184   2.266 -16.107  0.00  0.00    -0.464 OA
BRANCH  19  20
ATOM     20  C   UNL     1     -15.584   3.201 -15.095  0.00  0.00    +0.229 C 
ATOM     21  C   UNL     1     -16.562   2.551 -14.130  0.00  0.00    +0.048 C 
ENDBRANCH  19  20
ENDBRANCH  17  19
ENDBRANCH   7  17
TORSDOF 6
ENDMDL
MODEL 4
REMARK VINA RESULT:      -6.0      2.919      4.791
REMARK  Name = min_compound958.pdb
REMARK  8 active torsions:
REMARK  status: ('A' for Active; 'I' for Inactive)
REMARK    1  A    between atoms: _8  and  _15
REMARK    2  A    between atoms: _9  and  _10
REMARK    3  A    between atoms: _10  and  _12
REMARK    4  A    between atoms: _12  and  _16
REMARK    5  A    between atoms: _14  and  _15
REMARK    6  A    between atoms: _14  and  _18
REMARK    7  A    between atoms: _16  and  _17
REMARK    8  A    between atoms: _18  and  _19
REMARK                            x       y       z     vdW  Elec       q    Type
REMARK                         _______ _______ _______ _____ _____    ______ ____
ROOT
ATOM      1  C   UNL     1     -10.230   4.296 -15.413  0.00  0.00    +0.005 C 
ATOM      2  C   UNL     1      -9.923   5.253 -16.527  0.00  0.00    +0.005 C 
ATOM      3  C   UNL     1     -11.492   5.386 -17.116  0.00  0.00    +0.042 C 
ATOM      4  C   UNL     1     -12.051   4.059 -17.547  0.00  0.00    -0.013 C 
ATOM      5  S   UNL     1     -13.355   3.845 -18.638  0.00  0.00    -0.106 S 
ATOM      6  C   UNL     1     -12.897   2.196 -18.918  0.00  0.00    +0.152 C 
ATOM      7  C   UNL     1     -12.217   1.737 -17.780  0.00  0.00    +0.155 C 
ATOM      8  C   UNL     1     -11.630   2.857 -17.038  0.00  0.00    -0.044 C 
ATOM      9  C   UNL     1     -10.638   2.849 -15.893  0.00  0.00    +0.032 C 
ENDROOT
BRANCH   6  10
ATOM     10  N   UNL     1     -13.432   1.485 -20.018  0.00  0.00    -0.313 N 
ATOM     11  H   UNL     1     -13.115   0.519 -20.055  0.00  0.00    +0.149 HD
BRANCH  10  12
ATOM     12  C   UNL     1     -13.987   1.862 -21.242  0.00  0.00    +0.131 C 
ATOM     13  S   UNL     1     -12.964   1.994 -22.560  0.00  0.00    -0.019 S 
BRANCH  12  14
ATOM     14  N   UNL     1     -15.302   2.249 -21.400  0.00  0.00    -0.330 N 
ATOM     15  H   UNL     1     -16.072   1.714 -21.018  0.00  0.00    +0.147 HD
ATOM     16  C   UNL     1     -15.443   3.523 -22.180  0.00  0.00    +0.127 C 
ENDBRANCH  12  14
ENDBRANCH  10  12
ENDBRANCH   6  10
BRANCH   7  17
ATOM     17  C   UNL     1     -12.019   0.332 -17.435  0.00  0.00    +0.317 C 
ATOM     18  O   UNL     1     -12.743  -0.277 -16.658  0.00  0.00    -0.250 OA
BRANCH  17  19
ATOM     19  O   UNL     1     -11.009  -0.243 -18.156  0.00  0.00    -0.464 OA
BRANCH  19  20
ATOM     20  C   UNL     1     -10.069  -1.015 -17.394  0.00  0.00    +0.229 C 
ATOM     21  C   UNL     1      -8.907  -0.143 -16.946  0.00  0.00    +0.048 C 
ENDBRANCH  19  20
ENDBRANCH  17  19
ENDBRANCH   7  17
TORSDOF 6
ENDMDL
MODEL 5
REMARK VINA RESULT:      -5.5     13.937     15.225
REMARK  Name = min_compound958.pdb
REMARK  8 active torsions:
REMARK  status: ('A' for Active; 'I' for Inactive)
REMARK    1  A    between atoms: _8  and  _15
REMARK    2  A    between atoms: _9  and  _10
REMARK    3  A    between atoms: _10  and  _12
REMARK    4  A    between atoms: _12  and  _16
REMARK    5  A    between atoms: _14  and  _15
REMARK    6  A    between atoms: _14  and  _18
REMARK    7  A    between atoms: _16  and  _17
REMARK    8  A    between atoms: _18  and  _19
REMARK                            x       y       z     vdW  Elec       q    Type
REMARK                         _______ _______ _______ _____ _____    ______ ____
ROOT
ATOM      1  C   UNL     1     -14.499  -2.419  -1.452  0.00  0.00    +0.005 C 
ATOM      2  C   UNL     1     -15.619  -2.221  -0.474  0.00  0.00    +0.005 C 
ATOM      3  C   UNL     1     -16.853  -2.081  -1.607  0.00  0.00    +0.042 C 
ATOM      4  C   UNL     1     -16.625  -0.940  -2.558  0.00  0.00    -0.013 C 
ATOM      5  S   UNL     1     -17.842  -0.169  -3.485  0.00  0.00    -0.106 S 
ATOM      6  C   UNL     1     -16.821   1.209  -3.744  0.00  0.00    +0.152 C 
ATOM      7  C   UNL     1     -15.487   0.781  -3.662  0.00  0.00    +0.155 C 
ATOM      8  C   UNL     1     -15.383  -0.442  -2.860  0.00  0.00    -0.044 C 
ATOM      9  C   UNL     1     -14.155  -1.141  -2.313  0.00  0.00    +0.032 C 
ENDROOT
BRANCH   6  10
ATOM     10  N   UNL     1     -17.369   2.421  -4.227  0.00  0.00    -0.313 N 
ATOM     11  H   UNL     1     -17.486   2.426  -5.238  0.00  0.00    +0.149 HD
BRANCH  10  12
ATOM     12  C   UNL     1     -17.453   3.719  -3.722  0.00  0.00    +0.131 C 
ATOM     13  S   UNL     1     -18.907   4.209  -3.054  0.00  0.00    -0.019 S 
BRANCH  12  14
ATOM     14  N   UNL     1     -16.450   4.658  -3.852  0.00  0.00    -0.330 N 
ATOM     15  H   UNL     1     -15.473   4.427  -3.716  0.00  0.00    +0.147 HD
ATOM     16  C   UNL     1     -16.970   6.018  -4.213  0.00  0.00    +0.127 C 
ENDBRANCH  12  14
ENDBRANCH  10  12
ENDBRANCH   6  10
BRANCH   7  17
ATOM     17  C   UNL     1     -14.341   1.508  -4.201  0.00  0.00    +0.317 C 
ATOM     18  O   UNL     1     -14.108   2.682  -3.943  0.00  0.00    -0.250 OA
BRANCH  17  19
ATOM     19  O   UNL     1     -13.512   0.702  -4.930  0.00  0.00    -0.464 OA
BRANCH  19  20
ATOM     20  C   UNL     1     -14.098   0.107  -6.097  0.00  0.00    +0.229 C 
ATOM     21  C   UNL     1     -14.293   1.153  -7.184  0.00  0.00    +0.048 C 
ENDBRANCH  19  20
ENDBRANCH  17  19
ENDBRANCH   7  17
TORSDOF 6
ENDMDL
MODEL 6
REMARK VINA RESULT:      -5.4      3.066      4.148
REMARK  Name = min_compound958.pdb
REMARK  8 active torsions:
REMARK  status: ('A' for Active; 'I' for Inactive)
REMARK    1  A    between atoms: _8  and  _15
REMARK    2  A    between atoms: _9  and  _10
REMARK    3  A    between atoms: _10  and  _12
REMARK    4  A    between atoms: _12  and  _16
REMARK    5  A    between atoms: _14  and  _15
REMARK    6  A    between atoms: _14  and  _18
REMARK    7  A    between atoms: _16  and  _17
REMARK    8  A    between atoms: _18  and  _19
REMARK                            x       y       z     vdW  Elec       q    Type
REMARK                         _______ _______ _______ _____ _____    ______ ____
ROOT
ATOM      1  C   UNL     1     -10.076   0.751 -15.642  0.00  0.00    +0.005 C 
ATOM      2  C   UNL     1     -10.631  -0.527 -16.198  0.00  0.00    +0.005 C 
ATOM      3  C   UNL     1     -10.899   0.032 -17.760  0.00  0.00    +0.042 C 
ATOM      4  C   UNL     1     -11.838   1.205 -17.791  0.00  0.00    -0.013 C 
ATOM      5  S   UNL     1     -12.739   1.714 -19.157  0.00  0.00    -0.106 S 
ATOM      6  C   UNL     1     -13.818   2.625 -18.151  0.00  0.00    +0.152 C 
ATOM      7  C   UNL     1     -13.122   2.990 -16.988  0.00  0.00    +0.155 C 
ATOM      8  C   UNL     1     -12.012   2.065 -16.736  0.00  0.00    -0.044 C 
ATOM      9  C   UNL     1     -11.133   1.916 -15.511  0.00  0.00    +0.032 C 
ENDROOT
BRANCH   6  10
ATOM     10  N   UNL     1     -15.052   3.088 -18.665  0.00  0.00    -0.313 N 
ATOM     11  H   UNL     1     -15.736   2.342 -18.781  0.00  0.00    +0.149 HD
BRANCH  10  12
ATOM     12  C   UNL     1     -15.445   4.222 -19.376  0.00  0.00    +0.131 C 
ATOM     13  S   UNL     1     -14.254   5.283 -19.883  0.00  0.00    -0.019 S 
BRANCH  12  14
ATOM     14  N   UNL     1     -16.763   4.581 -19.578  0.00  0.00    -0.330 N 
ATOM     15  H   UNL     1     -17.068   5.064 -20.415  0.00  0.00    +0.147 HD
ATOM     16  C   UNL     1     -17.656   4.178 -18.443  0.00  0.00    +0.127 C 
ENDBRANCH  12  14
ENDBRANCH  10  12
ENDBRANCH   6  10
BRANCH   7  17
ATOM     17  C   UNL     1     -13.509   4.071 -16.086  0.00  0.00    +0.317 C 
ATOM     18  O   UNL     1     -13.354   5.255 -16.353  0.00  0.00    -0.250 OA
BRANCH  17  19
ATOM     19  O   UNL     1     -14.154   3.611 -14.972  0.00  0.00    -0.464 OA
BRANCH  19  20
ATOM     20  C   UNL     1     -15.587   3.634 -15.035  0.00  0.00    +0.229 C 
ATOM     21  C   UNL     1     -16.142   2.219 -14.977  0.00  0.00    +0.048 C 
ENDBRANCH  19  20
ENDBRANCH  17  19
ENDBRANCH   7  17
TORSDOF 6
ENDMDL
MODEL 7
REMARK VINA RESULT:      -5.4     13.000     14.935
REMARK  Name = min_compound958.pdb
REMARK  8 active torsions:
REMARK  status: ('A' for Active; 'I' for Inactive)
REMARK    1  A    between atoms: _8  and  _15
REMARK    2  A    between atoms: _9  and  _10
REMARK    3  A    between atoms: _10  and  _12
REMARK    4  A    between atoms: _12  and  _16
REMARK    5  A    between atoms: _14  and  _15
REMARK    6  A    between atoms: _14  and  _18
REMARK    7  A    between atoms: _16  and  _17
REMARK    8  A    between atoms: _18  and  _19
REMARK                            x       y       z     vdW  Elec       q    Type
REMARK                         _______ _______ _______ _____ _____    ______ ____
ROOT
ATOM      1  C   UNL     1     -16.022   2.662  -8.692  0.00  0.00    +0.005 C 
ATOM      2  C   UNL     1     -17.087   1.901  -9.424  0.00  0.00    +0.005 C 
ATOM      3  C   UNL     1     -18.158   1.764  -8.135  0.00  0.00    +0.042 C 
ATOM      4  C   UNL     1     -17.549   1.046  -6.964  0.00  0.00    -0.013 C 
ATOM      5  S   UNL     1     -18.429   0.273  -5.713  0.00  0.00    -0.106 S 
ATOM      6  C   UNL     1     -17.033  -0.647  -5.251  0.00  0.00    +0.152 C 
ATOM      7  C   UNL     1     -15.893   0.081  -5.622  0.00  0.00    +0.155 C 
ATOM      8  C   UNL     1     -16.200   1.007  -6.717  0.00  0.00    -0.044 C 
ATOM      9  C   UNL     1     -15.267   1.824  -7.587  0.00  0.00    +0.032 C 
ENDROOT
BRANCH   6  10
ATOM     10  N   UNL     1     -17.170  -1.771  -4.404  0.00  0.00    -0.313 N 
ATOM     11  H   UNL     1     -17.510  -2.596  -4.893  0.00  0.00    +0.149 HD
BRANCH  10  12
ATOM     12  C   UNL     1     -17.297  -1.939  -3.024  0.00  0.00    +0.131 C 
ATOM     13  S   UNL     1     -18.408  -3.062  -2.469  0.00  0.00    -0.019 S 
BRANCH  12  14
ATOM     14  N   UNL     1     -16.653  -1.149  -2.093  0.00  0.00    -0.330 N 
ATOM     15  H   UNL     1     -16.793  -0.147  -2.046  0.00  0.00    +0.147 HD
ATOM     16  C   UNL     1     -15.752  -1.936  -1.188  0.00  0.00    +0.127 C 
ENDBRANCH  12  14
ENDBRANCH  10  12
ENDBRANCH   6  10
BRANCH   7  17
ATOM     17  C   UNL     1     -14.555  -0.126  -5.076  0.00  0.00    +0.317 C 
ATOM     18  O   UNL     1     -13.586  -0.420  -5.765  0.00  0.00    -0.250 OA
BRANCH  17  19
ATOM     19  O   UNL     1     -14.490   0.151  -3.738  0.00  0.00    -0.464 OA
BRANCH  19  20
ATOM     20  C   UNL     1     -13.415   1.013  -3.337  0.00  0.00    +0.229 C 
ATOM     21  C   UNL     1     -13.740   2.459  -3.679  0.00  0.00    +0.048 C 
ENDBRANCH  19  20
ENDBRANCH  17  19
ENDBRANCH   7  17
TORSDOF 6
ENDMDL
MODEL 8
REMARK VINA RESULT:      -5.3     13.478     15.009
REMARK  Name = min_compound958.pdb
REMARK  8 active torsions:
REMARK  status: ('A' for Active; 'I' for Inactive)
REMARK    1  A    between atoms: _8  and  _15
REMARK    2  A    between atoms: _9  and  _10
REMARK    3  A    between atoms: _10  and  _12
REMARK    4  A    between atoms: _12  and  _16
REMARK    5  A    between atoms: _14  and  _15
REMARK    6  A    between atoms: _14  and  _18
REMARK    7  A    between atoms: _16  and  _17
REMARK    8  A    between atoms: _18  and  _19
REMARK                            x       y       z     vdW  Elec       q    Type
REMARK                         _______ _______ _______ _____ _____    ______ ____
ROOT
ATOM      1  C   UNL     1     -14.666  -2.534  -1.298  0.00  0.00    +0.005 C 
ATOM      2  C   UNL     1     -15.795  -2.181  -0.376  0.00  0.00    +0.005 C 
ATOM      3  C   UNL     1     -17.045  -2.534  -1.442  0.00  0.00    +0.042 C 
ATOM      4  C   UNL     1     -16.967  -1.717  -2.701  0.00  0.00    -0.013 C 
ATOM      5  S   UNL     1     -18.277  -1.409  -3.761  0.00  0.00    -0.106 S 
ATOM      6  C   UNL     1     -17.437  -0.067  -4.467  0.00  0.00    +0.152 C 
ATOM      7  C   UNL     1     -16.060  -0.292  -4.320  0.00  0.00    +0.155 C 
ATOM      8  C   UNL     1     -15.798  -1.194  -3.194  0.00  0.00    -0.044 C 
ATOM      9  C   UNL     1     -14.489  -1.547  -2.518  0.00  0.00    +0.032 C 
ENDROOT
BRANCH   6  10
ATOM     10  N   UNL     1     -18.134   0.870  -5.266  0.00  0.00    -0.313 N 
ATOM     11  H   UNL     1     -18.930   1.284  -4.786  0.00  0.00    +0.149 HD
BRANCH  10  12
ATOM     12  C   UNL     1     -18.222   1.100  -6.640  0.00  0.00    +0.131 C 
ATOM     13  S   UNL     1     -19.218   0.101  -7.541  0.00  0.00    -0.019 S 
BRANCH  12  14
ATOM     14  N   UNL     1     -17.445   2.021  -7.314  0.00  0.00    -0.330 N 
ATOM     15  H   UNL     1     -17.475   3.011  -7.101  0.00  0.00    +0.147 HD
ATOM     16  C   UNL     1     -16.578   1.392  -8.363  0.00  0.00    +0.127 C 
ENDBRANCH  12  14
ENDBRANCH  10  12
ENDBRANCH   6  10
BRANCH   7  17
ATOM     17  C   UNL     1     -15.017   0.364  -5.103  0.00  0.00    +0.317 C 
ATOM     18  O   UNL     1     -14.170  -0.248  -5.741  0.00  0.00    -0.250 OA
BRANCH  17  19
ATOM     19  O   UNL     1     -15.162   1.724  -5.127  0.00  0.00    -0.464 OA
BRANCH  19  20
ATOM     20  C   UNL     1     -14.896   2.395  -3.887  0.00  0.00    +0.229 C 
ATOM     21  C   UNL     1     -13.417   2.306  -3.544  0.00  0.00    +0.048 C 
ENDBRANCH  19  20
ENDBRANCH  17  19
ENDBRANCH   7  17
TORSDOF 6
ENDMDL
MODEL 9
REMARK VINA RESULT:      -5.3      3.686      6.712
REMARK  Name = min_compound958.pdb
REMARK  8 active torsions:
REMARK  status: ('A' for Active; 'I' for Inactive)
REMARK    1  A    between atoms: _8  and  _15
REMARK    2  A    between atoms: _9  and  _10
REMARK    3  A    between atoms: _10  and  _12
REMARK    4  A    between atoms: _12  and  _16
REMARK    5  A    between atoms: _14  and  _15
REMARK    6  A    between atoms: _14  and  _18
REMARK    7  A    between atoms: _16  and  _17
REMARK    8  A    between atoms: _18  and  _19
REMARK                            x       y       z     vdW  Elec       q    Type
REMARK                         _______ _______ _______ _____ _____    ______ ____
ROOT
ATOM      1  C   UNL     1     -16.036   7.537 -17.408  0.00  0.00    +0.005 C 
ATOM      2  C   UNL     1     -14.814   8.407 -17.425  0.00  0.00    +0.005 C 
ATOM      3  C   UNL     1     -13.804   7.321 -18.215  0.00  0.00    +0.042 C 
ATOM      4  C   UNL     1     -13.658   6.029 -17.462  0.00  0.00    -0.013 C 
ATOM      5  S   UNL     1     -12.368   4.917 -17.650  0.00  0.00    -0.106 S 
ATOM      6  C   UNL     1     -12.739   4.175 -16.127  0.00  0.00    +0.152 C 
ATOM      7  C   UNL     1     -14.104   4.374 -15.870  0.00  0.00    +0.155 C 
ATOM      8  C   UNL     1     -14.603   5.548 -16.592  0.00  0.00    -0.044 C 
ATOM      9  C   UNL     1     -15.924   6.279 -16.461  0.00  0.00    +0.032 C 
ENDROOT
BRANCH   6  10
ATOM     10  N   UNL     1     -11.804   3.312 -15.508  0.00  0.00    -0.313 N 
ATOM     11  H   UNL     1     -11.105   3.813 -14.964  0.00  0.00    +0.149 HD
BRANCH  10  12
ATOM     12  C   UNL     1     -11.390   2.000 -15.740  0.00  0.00    +0.131 C 
ATOM     13  S   UNL     1     -12.400   1.004 -16.630  0.00  0.00    -0.019 S 
BRANCH  12  14
ATOM     14  N   UNL     1     -10.260   1.442 -15.177  0.00  0.00    -0.330 N 
ATOM     15  H   UNL     1      -9.703   1.931 -14.487  0.00  0.00    +0.147 HD
ATOM     16  C   UNL     1      -9.973   0.063 -15.694  0.00  0.00    +0.127 C 
ENDBRANCH  12  14
ENDBRANCH  10  12
ENDBRANCH   6  10
BRANCH   7  17
ATOM     17  C   UNL     1     -14.900   3.593 -14.927  0.00  0.00    +0.317 C 
ATOM     18  O   UNL     1     -15.727   2.760 -15.275  0.00  0.00    -0.250 OA
BRANCH  17  19
ATOM     19  O   UNL     1     -14.538   3.820 -13.628  0.00  0.00    -0.464 OA
BRANCH  19  20
ATOM     20  C   UNL     1     -15.170   4.945 -12.999  0.00  0.00    +0.229 C 
ATOM     21  C   UNL     1     -15.421   4.656 -11.528  0.00  0.00    +0.048 C 
ENDBRANCH  19  20
ENDBRANCH  17  19
ENDBRANCH   7  17
TORSDOF 6
ENDMDL
