MODEL 1
REMARK VINA RESULT:      -7.7      0.000      0.000
REMARK  Name = min_compound928.pdb
REMARK  5 active torsions:
REMARK  status: ('A' for Active; 'I' for Inactive)
REMARK    1  A    between atoms: _2  and  _4
REMARK    2  A    between atoms: _2  and  _19
REMARK    3  A    between atoms: _3  and  _20
REMARK    4  A    between atoms: _6  and  _21
REMARK    5  A    between atoms: _18  and  _19
REMARK                            x       y       z     vdW  Elec       q    Type
REMARK                         _______ _______ _______ _____ _____    ______ ____
ROOT
ATOM      1  C   UNL     1     -14.881  -3.691  -2.015  0.00  0.00    +0.119 A 
ATOM      2  C   UNL     1     -13.509  -4.196  -1.720  0.00  0.00    +0.266 A 
ATOM      3  N   UNL     1     -13.317  -5.526  -1.954  0.00  0.00    -0.274 N 
ATOM      4  C   UNL     1     -14.324  -6.436  -2.035  0.00  0.00    +0.330 A 
ATOM      5  O   UNL     1     -14.066  -7.639  -1.951  0.00  0.00    -0.246 OA
ATOM      6  N   UNL     1     -15.600  -5.923  -2.201  0.00  0.00    -0.285 N 
ATOM      7  C   UNL     1     -16.757  -6.869  -2.318  0.00  0.00    +0.155 C 
ATOM      8  H   UNL     1     -12.406  -5.881  -1.726  0.00  0.00    +0.173 HD
ATOM      9  O   UNL     1     -12.581  -3.527  -1.271  0.00  0.00    -0.267 OA
ATOM     10  C   UNL     1     -15.873  -4.580  -2.271  0.00  0.00    +0.116 A 
ENDROOT
BRANCH  10  11
ATOM     11  N   UNL     1     -17.187  -4.178  -2.557  0.00  0.00    -0.344 N 
ATOM     12  H   UNL     1     -17.807  -4.695  -1.945  0.00  0.00    +0.144 HD
ATOM     13  H   UNL     1     -17.383  -4.553  -3.503  0.00  0.00    +0.144 HD
ENDBRANCH  10  11
BRANCH   1  15
ATOM     14  O   UNL     1     -15.211  -1.927  -0.515  0.00  0.00    -0.292 OA
ATOM     15  C   UNL     1     -15.204  -2.292  -1.729  0.00  0.00    +0.172 C 
BRANCH  15  16
ATOM     16  C   UNL     1     -14.587  -1.043  -3.098  0.00  0.00    +0.084 C 
BRANCH  16  17
ATOM     17  C   UNL     1     -15.119   0.614  -3.580  0.00  0.00    +0.004 C 
ATOM     18  C   UNL     1     -13.468   0.450  -2.901  0.00  0.00    +0.000 C 
ATOM     19  C   UNL     1     -14.587  -1.043  -3.098  0.00  0.00    +0.031 C 
ATOM     20  C   UNL     1     -14.953  -1.472  -4.905  0.00  0.00    -0.031 C 
ATOM     21  C   UNL     1     -14.398  -0.655  -5.897  0.00  0.00    -0.031 C 
ATOM     22  C   UNL     1     -13.801   0.593  -5.451  0.00  0.00    +0.031 C 
ATOM     23  C   UNL     1     -13.793   1.147  -4.049  0.00  0.00    +0.000 C 
ENDBRANCH  16  17
ENDBRANCH  15  16
ENDBRANCH   1  15
TORSDOF 4
ENDMDL
MODEL 2
REMARK VINA RESULT:      -7.7     14.730     17.036
REMARK  Name = min_compound928.pdb
REMARK  5 active torsions:
REMARK  status: ('A' for Active; 'I' for Inactive)
REMARK    1  A    between atoms: _2  and  _4
REMARK    2  A    between atoms: _2  and  _19
REMARK    3  A    between atoms: _3  and  _20
REMARK    4  A    between atoms: _6  and  _21
REMARK    5  A    between atoms: _18  and  _19
REMARK                            x       y       z     vdW  Elec       q    Type
REMARK                         _______ _______ _______ _____ _____    ______ ____
ROOT
ATOM      1  C   UNL     1     -12.730   4.071 -17.273  0.00  0.00    +0.119 A 
ATOM      2  C   UNL     1     -11.600   5.046 -17.260  0.00  0.00    +0.266 A 
ATOM      3  N   UNL     1     -11.588   5.934 -18.295  0.00  0.00    -0.274 N 
ATOM      4  C   UNL     1     -12.247   5.742 -19.468  0.00  0.00    +0.330 A 
ATOM      5  O   UNL     1     -11.956   6.429 -20.450  0.00  0.00    -0.246 OA
ATOM      6  N   UNL     1     -13.216   4.752 -19.471  0.00  0.00    -0.285 N 
ATOM      7  C   UNL     1     -13.996   4.498 -20.726  0.00  0.00    +0.155 C 
ATOM      8  H   UNL     1     -10.813   6.572 -18.312  0.00  0.00    +0.173 HD
ATOM      9  O   UNL     1     -10.698   5.085 -16.427  0.00  0.00    -0.267 OA
ATOM     10  C   UNL     1     -13.513   3.981 -18.376  0.00  0.00    +0.116 A 
ENDROOT
BRANCH  10  11
ATOM     11  N   UNL     1     -14.594   3.088 -18.459  0.00  0.00    -0.344 N 
ATOM     12  H   UNL     1     -15.020   3.206 -19.370  0.00  0.00    +0.144 HD
ATOM     13  H   UNL     1     -15.297   3.455 -17.792  0.00  0.00    +0.144 HD
ENDBRANCH  10  11
BRANCH   1  15
ATOM     14  O   UNL     1     -13.898   2.848 -15.656  0.00  0.00    -0.292 OA
ATOM     15  C   UNL     1     -12.788   3.033 -16.242  0.00  0.00    +0.172 C 
BRANCH  15  16
ATOM     16  C   UNL     1     -11.629   1.502 -16.597  0.00  0.00    +0.084 C 
BRANCH  16  17
ATOM     17  C   UNL     1     -10.836   0.285 -15.524  0.00  0.00    +0.004 C 
ATOM     18  C   UNL     1     -12.229  -0.274 -16.504  0.00  0.00    +0.000 C 
ATOM     19  C   UNL     1     -11.629   1.502 -16.597  0.00  0.00    +0.031 C 
ATOM     20  C   UNL     1      -9.902   1.671 -17.352  0.00  0.00    -0.031 C 
ATOM     21  C   UNL     1      -9.239   0.500 -17.738  0.00  0.00    -0.031 C 
ATOM     22  C   UNL     1      -9.826  -0.755 -17.295  0.00  0.00    +0.031 C 
ATOM     23  C   UNL     1     -11.019  -0.931 -16.390  0.00  0.00    +0.000 C 
ENDBRANCH  16  17
ENDBRANCH  15  16
ENDBRANCH   1  15
TORSDOF 4
ENDMDL
MODEL 3
REMARK VINA RESULT:      -7.6     15.085     17.572
REMARK  Name = min_compound928.pdb
REMARK  5 active torsions:
REMARK  status: ('A' for Active; 'I' for Inactive)
REMARK    1  A    between atoms: _2  and  _4
REMARK    2  A    between atoms: _2  and  _19
REMARK    3  A    between atoms: _3  and  _20
REMARK    4  A    between atoms: _6  and  _21
REMARK    5  A    between atoms: _18  and  _19
REMARK                            x       y       z     vdW  Elec       q    Type
REMARK                         _______ _______ _______ _____ _____    ______ ____
ROOT
ATOM      1  C   UNL     1     -12.677   3.752 -18.220  0.00  0.00    +0.119 A 
ATOM      2  C   UNL     1     -13.457   3.380 -19.437  0.00  0.00    +0.266 A 
ATOM      3  N   UNL     1     -13.322   4.232 -20.494  0.00  0.00    -0.274 N 
ATOM      4  C   UNL     1     -12.890   5.515 -20.386  0.00  0.00    +0.330 A 
ATOM      5  O   UNL     1     -13.074   6.301 -21.318  0.00  0.00    -0.246 OA
ATOM      6  N   UNL     1     -12.266   5.852 -19.196  0.00  0.00    -0.285 N 
ATOM      7  C   UNL     1     -11.745   7.246 -19.014  0.00  0.00    +0.155 C 
ATOM      8  H   UNL     1     -13.869   4.007 -21.306  0.00  0.00    +0.173 HD
ATOM      9  O   UNL     1     -14.206   2.412 -19.540  0.00  0.00    -0.267 OA
ATOM     10  C   UNL     1     -12.088   4.971 -18.159  0.00  0.00    +0.116 A 
ENDROOT
BRANCH  10  11
ATOM     11  N   UNL     1     -11.338   5.388 -17.047  0.00  0.00    -0.344 N 
ATOM     12  H   UNL     1     -10.591   4.717 -16.911  0.00  0.00    +0.144 HD
ATOM     13  H   UNL     1     -11.965   5.250 -16.233  0.00  0.00    +0.144 HD
ENDBRANCH  10  11
BRANCH   1  15
ATOM     14  O   UNL     1     -13.968   2.830 -16.500  0.00  0.00    -0.292 OA
ATOM     15  C   UNL     1     -12.812   2.939 -17.011  0.00  0.00    +0.172 C 
BRANCH  15  16
ATOM     16  C   UNL     1     -11.593   1.415 -16.943  0.00  0.00    +0.084 C 
BRANCH  16  17
ATOM     17  C   UNL     1     -10.918   0.439 -15.581  0.00  0.00    +0.004 C 
ATOM     18  C   UNL     1     -12.227  -0.307 -16.551  0.00  0.00    +0.000 C 
ATOM     19  C   UNL     1     -11.593   1.415 -16.943  0.00  0.00    +0.031 C 
ATOM     20  C   UNL     1      -9.803   1.431 -17.559  0.00  0.00    -0.031 C 
ATOM     21  C   UNL     1      -9.128   0.208 -17.641  0.00  0.00    -0.031 C 
ATOM     22  C   UNL     1      -9.772  -0.933 -17.010  0.00  0.00    +0.031 C 
ATOM     23  C   UNL     1     -11.043  -0.926 -16.199  0.00  0.00    +0.000 C 
ENDBRANCH  16  17
ENDBRANCH  15  16
ENDBRANCH   1  15
TORSDOF 4
ENDMDL
MODEL 4
REMARK VINA RESULT:      -7.6     15.030     17.180
REMARK  Name = min_compound928.pdb
REMARK  5 active torsions:
REMARK  status: ('A' for Active; 'I' for Inactive)
REMARK    1  A    between atoms: _2  and  _4
REMARK    2  A    between atoms: _2  and  _19
REMARK    3  A    between atoms: _3  and  _20
REMARK    4  A    between atoms: _6  and  _21
REMARK    5  A    between atoms: _18  and  _19
REMARK                            x       y       z     vdW  Elec       q    Type
REMARK                         _______ _______ _______ _____ _____    ______ ____
ROOT
ATOM      1  C   UNL     1     -12.946   4.210 -17.485  0.00  0.00    +0.119 A 
ATOM      2  C   UNL     1     -11.813   5.181 -17.474  0.00  0.00    +0.266 A 
ATOM      3  N   UNL     1     -11.751   6.012 -18.554  0.00  0.00    -0.274 N 
ATOM      4  C   UNL     1     -12.356   5.758 -19.744  0.00  0.00    +0.330 A 
ATOM      5  O   UNL     1     -12.017   6.390 -20.747  0.00  0.00    -0.246 OA
ATOM      6  N   UNL     1     -13.328   4.771 -19.737  0.00  0.00    -0.285 N 
ATOM      7  C   UNL     1     -14.051   4.450 -21.011  0.00  0.00    +0.155 C 
ATOM      8  H   UNL     1     -10.973   6.647 -18.570  0.00  0.00    +0.173 HD
ATOM      9  O   UNL     1     -10.950   5.264 -16.604  0.00  0.00    -0.267 OA
ATOM     10  C   UNL     1     -13.678   4.061 -18.617  0.00  0.00    +0.116 A 
ENDROOT
BRANCH  10  11
ATOM     11  N   UNL     1     -14.758   3.167 -18.700  0.00  0.00    -0.344 N 
ATOM     12  H   UNL     1     -15.507   3.636 -19.195  0.00  0.00    +0.144 HD
ATOM     13  H   UNL     1     -15.105   3.073 -17.729  0.00  0.00    +0.144 HD
ENDBRANCH  10  11
BRANCH   1  15
ATOM     14  O   UNL     1     -14.194   3.070 -15.868  0.00  0.00    -0.292 OA
ATOM     15  C   UNL     1     -13.056   3.229 -16.404  0.00  0.00    +0.172 C 
BRANCH  15  16
ATOM     16  C   UNL     1     -11.874   1.688 -16.611  0.00  0.00    +0.084 C 
BRANCH  16  17
ATOM     17  C   UNL     1     -10.941   1.033 -18.012  0.00  0.00    +0.004 C 
ATOM     18  C   UNL     1     -10.020   1.929 -16.764  0.00  0.00    +0.000 C 
ATOM     19  C   UNL     1     -11.874   1.688 -16.611  0.00  0.00    +0.031 C 
ATOM     20  C   UNL     1     -12.375  -0.119 -16.353  0.00  0.00    -0.031 C 
ATOM     21  C   UNL     1     -11.360  -1.082 -16.324  0.00  0.00    -0.031 C 
ATOM     22  C   UNL     1     -10.039  -0.645 -16.745  0.00  0.00    +0.031 C 
ATOM     23  C   UNL     1      -9.661   0.706 -17.296  0.00  0.00    +0.000 C 
ENDBRANCH  16  17
ENDBRANCH  15  16
ENDBRANCH   1  15
TORSDOF 4
ENDMDL
MODEL 5
REMARK VINA RESULT:      -7.5     13.900     15.286
REMARK  Name = min_compound928.pdb
REMARK  5 active torsions:
REMARK  status: ('A' for Active; 'I' for Inactive)
REMARK    1  A    between atoms: _2  and  _4
REMARK    2  A    between atoms: _2  and  _19
REMARK    3  A    between atoms: _3  and  _20
REMARK    4  A    between atoms: _6  and  _21
REMARK    5  A    between atoms: _18  and  _19
REMARK                            x       y       z     vdW  Elec       q    Type
REMARK                         _______ _______ _______ _____ _____    ______ ____
ROOT
ATOM      1  C   UNL     1     -14.724   3.473 -16.173  0.00  0.00    +0.119 A 
ATOM      2  C   UNL     1     -14.423   4.933 -16.245  0.00  0.00    +0.266 A 
ATOM      3  N   UNL     1     -15.078   5.706 -15.331  0.00  0.00    -0.274 N 
ATOM      4  C   UNL     1     -16.210   5.323 -14.685  0.00  0.00    +0.330 A 
ATOM      5  O   UNL     1     -16.900   6.169 -14.111  0.00  0.00    -0.246 OA
ATOM      6  N   UNL     1     -16.515   3.973 -14.734  0.00  0.00    -0.285 N 
ATOM      7  C   UNL     1     -17.741   3.476 -14.026  0.00  0.00    +0.155 C 
ATOM      8  H   UNL     1     -14.906   6.693 -15.393  0.00  0.00    +0.173 HD
ATOM      9  O   UNL     1     -13.674   5.470 -17.057  0.00  0.00    -0.267 OA
ATOM     10  C   UNL     1     -15.750   3.047 -15.395  0.00  0.00    +0.116 A 
ENDROOT
BRANCH  10  11
ATOM     11  N   UNL     1     -16.090   1.690 -15.279  0.00  0.00    -0.344 N 
ATOM     12  H   UNL     1     -17.069   1.596 -15.524  0.00  0.00    +0.144 HD
ATOM     13  H   UNL     1     -16.055   1.490 -14.263  0.00  0.00    +0.144 HD
ENDBRANCH  10  11
BRANCH   1  15
ATOM     14  O   UNL     1     -14.267   2.861 -18.385  0.00  0.00    -0.292 OA
ATOM     15  C   UNL     1     -14.124   2.572 -17.158  0.00  0.00    +0.172 C 
BRANCH  15  16
ATOM     16  C   UNL     1     -12.459   1.744 -16.560  0.00  0.00    +0.084 C 
BRANCH  16  17
ATOM     17  C   UNL     1     -10.751   1.864 -17.134  0.00  0.00    +0.004 C 
ATOM     18  C   UNL     1     -11.114   2.516 -15.505  0.00  0.00    +0.000 C 
ATOM     19  C   UNL     1     -12.459   1.744 -16.560  0.00  0.00    +0.031 C 
ATOM     20  C   UNL     1     -12.217  -0.111 -16.843  0.00  0.00    -0.031 C 
ATOM     21  C   UNL     1     -11.086  -0.717 -16.282  0.00  0.00    -0.031 C 
ATOM     22  C   UNL     1     -10.070   0.175 -15.748  0.00  0.00    +0.031 C 
ATOM     23  C   UNL     1     -10.057   1.681 -15.812  0.00  0.00    +0.000 C 
ENDBRANCH  16  17
ENDBRANCH  15  16
ENDBRANCH   1  15
TORSDOF 4
ENDMDL
MODEL 6
REMARK VINA RESULT:      -7.5     14.878     16.846
REMARK  Name = min_compound928.pdb
REMARK  5 active torsions:
REMARK  status: ('A' for Active; 'I' for Inactive)
REMARK    1  A    between atoms: _2  and  _4
REMARK    2  A    between atoms: _2  and  _19
REMARK    3  A    between atoms: _3  and  _20
REMARK    4  A    between atoms: _6  and  _21
REMARK    5  A    between atoms: _18  and  _19
REMARK                            x       y       z     vdW  Elec       q    Type
REMARK                         _______ _______ _______ _____ _____    ______ ____
ROOT
ATOM      1  C   UNL     1     -13.971   3.649 -18.085  0.00  0.00    +0.119 A 
ATOM      2  C   UNL     1     -14.963   3.621 -16.971  0.00  0.00    +0.266 A 
ATOM      3  N   UNL     1     -15.382   4.845 -16.538  0.00  0.00    -0.274 N 
ATOM      4  C   UNL     1     -14.702   6.001 -16.751  0.00  0.00    +0.330 A 
ATOM      5  O   UNL     1     -14.979   7.004 -16.089  0.00  0.00    -0.246 OA
ATOM      6  N   UNL     1     -13.712   5.958 -17.720  0.00  0.00    -0.285 N 
ATOM      7  C   UNL     1     -12.933   7.203 -18.023  0.00  0.00    +0.155 C 
ATOM      8  H   UNL     1     -16.025   4.836 -15.766  0.00  0.00    +0.173 HD
ATOM      9  O   UNL     1     -15.391   2.611 -16.420  0.00  0.00    -0.267 OA
ATOM     10  C   UNL     1     -13.400   4.829 -18.434  0.00  0.00    +0.116 A 
ENDROOT
BRANCH  10  11
ATOM     11  N   UNL     1     -12.460   4.931 -19.472  0.00  0.00    -0.344 N 
ATOM     12  H   UNL     1     -11.685   5.489 -19.131  0.00  0.00    +0.144 HD
ATOM     13  H   UNL     1     -12.914   5.526 -20.189  0.00  0.00    +0.144 HD
ENDBRANCH  10  11
BRANCH   1  15
ATOM     14  O   UNL     1     -13.313   2.231 -19.826  0.00  0.00    -0.292 OA
ATOM     15  C   UNL     1     -13.408   2.389 -18.571  0.00  0.00    +0.172 C 
BRANCH  15  16
ATOM     16  C   UNL     1     -12.029   1.639 -17.408  0.00  0.00    +0.084 C 
BRANCH  16  17
ATOM     17  C   UNL     1     -10.380   2.203 -16.935  0.00  0.00    +0.004 C 
ATOM     18  C   UNL     1     -11.676   2.345 -15.706  0.00  0.00    +0.000 C 
ATOM     19  C   UNL     1     -12.029   1.639 -17.408  0.00  0.00    +0.031 C 
ATOM     20  C   UNL     1     -11.158  -0.010 -17.730  0.00  0.00    -0.031 C 
ATOM     21  C   UNL     1     -10.340  -0.527 -16.718  0.00  0.00    -0.031 C 
ATOM     22  C   UNL     1     -10.031   0.366 -15.614  0.00  0.00    +0.031 C 
ATOM     23  C   UNL     1     -10.419   1.817 -15.482  0.00  0.00    +0.000 C 
ENDBRANCH  16  17
ENDBRANCH  15  16
ENDBRANCH   1  15
TORSDOF 4
ENDMDL
MODEL 7
REMARK VINA RESULT:      -7.4     14.519     16.572
REMARK  Name = min_compound928.pdb
REMARK  5 active torsions:
REMARK  status: ('A' for Active; 'I' for Inactive)
REMARK    1  A    between atoms: _2  and  _4
REMARK    2  A    between atoms: _2  and  _19
REMARK    3  A    between atoms: _3  and  _20
REMARK    4  A    between atoms: _6  and  _21
REMARK    5  A    between atoms: _18  and  _19
REMARK                            x       y       z     vdW  Elec       q    Type
REMARK                         _______ _______ _______ _____ _____    ______ ____
ROOT
ATOM      1  C   UNL     1     -12.230   2.608 -17.102  0.00  0.00    +0.119 A 
ATOM      2  C   UNL     1     -11.766   2.926 -15.720  0.00  0.00    +0.266 A 
ATOM      3  N   UNL     1     -10.749   2.144 -15.256  0.00  0.00    -0.274 N 
ATOM      4  C   UNL     1     -10.435   0.924 -15.766  0.00  0.00    +0.330 A 
ATOM      5  O   UNL     1      -9.715   0.160 -15.119  0.00  0.00    -0.246 OA
ATOM      6  N   UNL     1     -10.976   0.622 -17.005  0.00  0.00    -0.285 N 
ATOM      7  C   UNL     1     -10.656  -0.700 -17.638  0.00  0.00    +0.155 C 
ATOM      8  H   UNL     1     -10.452   2.329 -14.315  0.00  0.00    +0.173 HD
ATOM      9  O   UNL     1     -12.236   3.793 -14.988  0.00  0.00    -0.267 OA
ATOM     10  C   UNL     1     -11.794   1.474 -17.702  0.00  0.00    +0.116 A 
ENDROOT
BRANCH  10  11
ATOM     11  N   UNL     1     -12.188   1.112 -19.000  0.00  0.00    -0.344 N 
ATOM     12  H   UNL     1     -11.575   0.367 -19.311  0.00  0.00    +0.144 HD
ATOM     13  H   UNL     1     -11.935   1.922 -19.594  0.00  0.00    +0.144 HD
ENDBRANCH  10  11
BRANCH   1  15
ATOM     14  O   UNL     1     -14.437   3.377 -16.983  0.00  0.00    -0.292 OA
ATOM     15  C   UNL     1     -13.365   3.346 -17.660  0.00  0.00    +0.172 C 
BRANCH  15  16
ATOM     16  C   UNL     1     -12.850   4.914 -18.705  0.00  0.00    +0.084 C 
BRANCH  16  17
ATOM     17  C   UNL     1     -13.295   6.661 -18.601  0.00  0.00    +0.004 C 
ATOM     18  C   UNL     1     -11.819   6.140 -17.730  0.00  0.00    +0.000 C 
ATOM     19  C   UNL     1     -12.850   4.914 -18.705  0.00  0.00    +0.031 C 
ATOM     20  C   UNL     1     -12.827   5.232 -20.571  0.00  0.00    -0.031 C 
ATOM     21  C   UNL     1     -12.091   6.327 -21.038  0.00  0.00    -0.031 C 
ATOM     22  C   UNL     1     -11.618   7.268 -20.036  0.00  0.00    +0.031 C 
ATOM     23  C   UNL     1     -11.909   7.243 -18.557  0.00  0.00    +0.000 C 
ENDBRANCH  16  17
ENDBRANCH  15  16
ENDBRANCH   1  15
TORSDOF 4
ENDMDL
MODEL 8
REMARK VINA RESULT:      -7.4     15.351     17.534
REMARK  Name = min_compound928.pdb
REMARK  5 active torsions:
REMARK  status: ('A' for Active; 'I' for Inactive)
REMARK    1  A    between atoms: _2  and  _4
REMARK    2  A    between atoms: _2  and  _19
REMARK    3  A    between atoms: _3  and  _20
REMARK    4  A    between atoms: _6  and  _21
REMARK    5  A    between atoms: _18  and  _19
REMARK                            x       y       z     vdW  Elec       q    Type
REMARK                         _______ _______ _______ _____ _____    ______ ____
ROOT
ATOM      1  C   UNL     1     -13.522   4.092 -18.419  0.00  0.00    +0.119 A 
ATOM      2  C   UNL     1     -12.641   5.279 -18.214  0.00  0.00    +0.266 A 
ATOM      3  N   UNL     1     -12.387   6.013 -19.334  0.00  0.00    -0.274 N 
ATOM      4  C   UNL     1     -12.529   5.542 -20.601  0.00  0.00    +0.330 A 
ATOM      5  O   UNL     1     -12.007   6.147 -21.540  0.00  0.00    -0.246 OA
ATOM      6  N   UNL     1     -13.263   4.375 -20.740  0.00  0.00    -0.285 N 
ATOM      7  C   UNL     1     -13.478   3.806 -22.111  0.00  0.00    +0.155 C 
ATOM      8  H   UNL     1     -11.769   6.795 -19.212  0.00  0.00    +0.173 HD
ATOM      9  O   UNL     1     -12.127   5.613 -17.149  0.00  0.00    -0.267 OA
ATOM     10  C   UNL     1     -13.820   3.700 -19.683  0.00  0.00    +0.116 A 
ENDROOT
BRANCH  10  11
ATOM     11  N   UNL     1     -14.642   2.594 -19.952  0.00  0.00    -0.344 N 
ATOM     12  H   UNL     1     -15.569   2.945 -20.166  0.00  0.00    +0.144 HD
ATOM     13  H   UNL     1     -14.750   2.111 -19.042  0.00  0.00    +0.144 HD
ENDBRANCH  10  11
BRANCH   1  15
ATOM     14  O   UNL     1     -14.992   2.819 -17.118  0.00  0.00    -0.292 OA
ATOM     15  C   UNL     1     -13.795   3.202 -17.290  0.00  0.00    +0.172 C 
BRANCH  15  16
ATOM     16  C   UNL     1     -12.332   1.973 -16.882  0.00  0.00    +0.084 C 
BRANCH  16  17
ATOM     17  C   UNL     1     -10.543   2.076 -17.100  0.00  0.00    +0.004 C 
ATOM     18  C   UNL     1     -11.209   2.634 -15.533  0.00  0.00    +0.000 C 
ATOM     19  C   UNL     1     -12.332   1.973 -16.882  0.00  0.00    +0.031 C 
ATOM     20  C   UNL     1     -12.072   0.132 -17.237  0.00  0.00    -0.031 C 
ATOM     21  C   UNL     1     -11.086  -0.542 -16.508  0.00  0.00    -0.031 C 
ATOM     22  C   UNL     1     -10.180   0.282 -15.725  0.00  0.00    +0.031 C 
ATOM     23  C   UNL     1     -10.127   1.788 -15.684  0.00  0.00    +0.000 C 
ENDBRANCH  16  17
ENDBRANCH  15  16
ENDBRANCH   1  15
TORSDOF 4
ENDMDL
MODEL 9
REMARK VINA RESULT:      -7.4     13.848     15.072
REMARK  Name = min_compound928.pdb
REMARK  5 active torsions:
REMARK  status: ('A' for Active; 'I' for Inactive)
REMARK    1  A    between atoms: _2  and  _4
REMARK    2  A    between atoms: _2  and  _19
REMARK    3  A    between atoms: _3  and  _20
REMARK    4  A    between atoms: _6  and  _21
REMARK    5  A    between atoms: _18  and  _19
REMARK                            x       y       z     vdW  Elec       q    Type
REMARK                         _______ _______ _______ _____ _____    ______ ____
ROOT
ATOM      1  C   UNL     1     -11.758   2.944 -16.959  0.00  0.00    +0.119 A 
ATOM      2  C   UNL     1     -10.889   3.200 -15.773  0.00  0.00    +0.266 A 
ATOM      3  N   UNL     1      -9.990   2.214 -15.490  0.00  0.00    -0.274 N 
ATOM      4  C   UNL     1     -10.105   0.932 -15.928  0.00  0.00    +0.330 A 
ATOM      5  O   UNL     1      -9.432   0.045 -15.398  0.00  0.00    -0.246 OA
ATOM      6  N   UNL     1     -11.003   0.717 -16.960  0.00  0.00    -0.285 N 
ATOM      7  C   UNL     1     -11.167  -0.670 -17.507  0.00  0.00    +0.155 C 
ATOM      8  H   UNL     1      -9.424   2.362 -14.674  0.00  0.00    +0.173 HD
ATOM      9  O   UNL     1     -10.944   4.187 -15.045  0.00  0.00    -0.267 OA
ATOM     10  C   UNL     1     -11.761   1.712 -17.524  0.00  0.00    +0.116 A 
ENDROOT
BRANCH  10  11
ATOM     11  N   UNL     1     -12.551   1.400 -18.642  0.00  0.00    -0.344 N 
ATOM     12  H   UNL     1     -11.933   1.306 -19.439  0.00  0.00    +0.144 HD
ATOM     13  H   UNL     1     -13.096   2.260 -18.834  0.00  0.00    +0.144 HD
ENDBRANCH  10  11
BRANCH   1  15
ATOM     14  O   UNL     1     -12.987   4.169 -18.529  0.00  0.00    -0.292 OA
ATOM     15  C   UNL     1     -12.801   3.912 -17.301  0.00  0.00    +0.172 C 
BRANCH  15  16
ATOM     16  C   UNL     1     -14.334   3.881 -16.090  0.00  0.00    +0.084 C 
BRANCH  16  17
ATOM     17  C   UNL     1     -14.492   4.071 -14.301  0.00  0.00    +0.004 C 
ATOM     18  C   UNL     1     -15.285   5.307 -15.327  0.00  0.00    +0.000 C 
ATOM     19  C   UNL     1     -14.334   3.881 -16.090  0.00  0.00    +0.031 C 
ATOM     20  C   UNL     1     -15.139   2.196 -15.785  0.00  0.00    -0.031 C 
ATOM     21  C   UNL     1     -16.314   2.159 -15.026  0.00  0.00    -0.031 C 
ATOM     22  C   UNL     1     -16.675   3.383 -14.328  0.00  0.00    +0.031 C 
ATOM     23  C   UNL     1     -15.875   4.659 -14.259  0.00  0.00    +0.000 C 
ENDBRANCH  16  17
ENDBRANCH  15  16
ENDBRANCH   1  15
TORSDOF 4
ENDMDL
