MODEL 1
REMARK VINA RESULT:      -6.5      0.000      0.000
REMARK  Name = min_compound920.pdb
REMARK  4 active torsions:
REMARK  status: ('A' for Active; 'I' for Inactive)
REMARK    1  A    between atoms: _6  and  _16
REMARK    2  A    between atoms: _10  and  _11
REMARK    3  A    between atoms: _12  and  _18
REMARK    4  A    between atoms: _16  and  _17
REMARK                            x       y       z     vdW  Elec       q    Type
REMARK                         _______ _______ _______ _____ _____    ______ ____
ROOT
ATOM      1  N   UNL     1     -13.660   3.829 -14.974  0.00  0.00    -0.307 N 
ATOM      2  H   UNL     1     -13.010   3.722 -14.209  0.00  0.00    +0.149 HD
ATOM      3  C   UNL     1     -13.541   3.015 -16.084  0.00  0.00    +0.254 C 
ATOM      4  O   UNL     1     -14.464   2.932 -16.892  0.00  0.00    -0.270 OA
ENDROOT
BRANCH   3   5
ATOM      5  C   UNL     1     -12.308   2.270 -16.201  0.00  0.00    +0.117 A 
ATOM      6  C   UNL     1     -10.960   2.580 -16.052  0.00  0.00    +0.081 A 
ATOM      7  C   UNL     1     -10.332   3.885 -15.729  0.00  0.00    +0.069 C 
ATOM      8  N   UNL     1     -10.094   1.508 -16.254  0.00  0.00    -0.146 NA
ATOM      9  N   UNL     1     -10.735   0.401 -16.577  0.00  0.00    -0.110 NA
ATOM     10  S   UNL     1     -12.387   0.610 -16.654  0.00  0.00    +0.041 S 
ENDBRANCH   3   5
BRANCH   1  11
ATOM     11  C   UNL     1     -14.905   4.515 -14.700  0.00  0.00    +0.144 C 
BRANCH  11  16
ATOM     12  C   UNL     1     -16.928   3.401 -11.017  0.00  0.00    +0.004 A 
ATOM     13  C   UNL     1     -17.337   2.878 -12.241  0.00  0.00    +0.020 A 
ATOM     14  C   UNL     1     -16.677   3.242 -13.422  0.00  0.00    +0.048 A 
ATOM     15 CL   UNL     1     -17.245   2.527 -14.892  0.00  0.00    -0.083 Cl
ATOM     16  C   UNL     1     -15.594   4.143 -13.409  0.00  0.00    +0.023 A 
ATOM     17  C   UNL     1     -15.200   4.638 -12.159  0.00  0.00    +0.129 A 
ATOM     18  F   UNL     1     -14.153   5.471 -12.058  0.00  0.00    -0.205 F 
ATOM     19  C   UNL     1     -15.853   4.283 -10.978  0.00  0.00    +0.039 A 
ENDBRANCH  11  16
ENDBRANCH   1  11
TORSDOF 3
ENDMDL
MODEL 2
REMARK VINA RESULT:      -6.3      7.016      9.022
REMARK  Name = min_compound920.pdb
REMARK  4 active torsions:
REMARK  status: ('A' for Active; 'I' for Inactive)
REMARK    1  A    between atoms: _6  and  _16
REMARK    2  A    between atoms: _10  and  _11
REMARK    3  A    between atoms: _12  and  _18
REMARK    4  A    between atoms: _16  and  _17
REMARK                            x       y       z     vdW  Elec       q    Type
REMARK                         _______ _______ _______ _____ _____    ______ ____
ROOT
ATOM      1  N   UNL     1     -17.261   3.036  -6.845  0.00  0.00    -0.307 N 
ATOM      2  H   UNL     1     -17.367   3.849  -6.255  0.00  0.00    +0.149 HD
ATOM      3  C   UNL     1     -16.871   3.200  -8.160  0.00  0.00    +0.254 C 
ATOM      4  O   UNL     1     -16.471   2.237  -8.812  0.00  0.00    -0.270 OA
ENDROOT
BRANCH   3   5
ATOM      5  C   UNL     1     -16.933   4.546  -8.683  0.00  0.00    +0.117 A 
ATOM      6  C   UNL     1     -16.383   5.194  -9.784  0.00  0.00    +0.081 A 
ATOM      7  C   UNL     1     -15.467   4.657 -10.823  0.00  0.00    +0.069 C 
ATOM      8  N   UNL     1     -16.738   6.536  -9.904  0.00  0.00    -0.146 NA
ATOM      9  N   UNL     1     -17.517   6.936  -8.918  0.00  0.00    -0.110 NA
ATOM     10  S   UNL     1     -17.843   5.726  -7.819  0.00  0.00    +0.041 S 
ENDBRANCH   3   5
BRANCH   1  11
ATOM     11  C   UNL     1     -17.112   1.753  -6.193  0.00  0.00    +0.144 C 
BRANCH  11  16
ATOM     12  C   UNL     1     -13.443   1.147  -3.942  0.00  0.00    +0.004 A 
ATOM     13  C   UNL     1     -13.756   0.332  -5.028  0.00  0.00    +0.020 A 
ATOM     14  C   UNL     1     -14.940   0.537  -5.747  0.00  0.00    +0.048 A 
ATOM     15 CL   UNL     1     -15.235  -0.514  -7.090  0.00  0.00    -0.083 Cl
ATOM     16  C   UNL     1     -15.844   1.559  -5.396  0.00  0.00    +0.023 A 
ATOM     17  C   UNL     1     -15.490   2.369  -4.310  0.00  0.00    +0.129 A 
ATOM     18  F   UNL     1     -16.279   3.388  -3.936  0.00  0.00    -0.205 F 
ATOM     19  C   UNL     1     -14.314   2.171  -3.586  0.00  0.00    +0.039 A 
ENDBRANCH  11  16
ENDBRANCH   1  11
TORSDOF 3
ENDMDL
MODEL 3
REMARK VINA RESULT:      -6.3      4.268      6.690
REMARK  Name = min_compound920.pdb
REMARK  4 active torsions:
REMARK  status: ('A' for Active; 'I' for Inactive)
REMARK    1  A    between atoms: _6  and  _16
REMARK    2  A    between atoms: _10  and  _11
REMARK    3  A    between atoms: _12  and  _18
REMARK    4  A    between atoms: _16  and  _17
REMARK                            x       y       z     vdW  Elec       q    Type
REMARK                         _______ _______ _______ _____ _____    ______ ____
ROOT
ATOM      1  N   UNL     1     -14.806   5.822 -16.626  0.00  0.00    -0.307 N 
ATOM      2  H   UNL     1     -15.250   5.313 -15.875  0.00  0.00    +0.149 HD
ATOM      3  C   UNL     1     -14.700   7.197 -16.542  0.00  0.00    +0.254 C 
ATOM      4  O   UNL     1     -13.935   7.806 -17.289  0.00  0.00    -0.270 OA
ENDROOT
BRANCH   3   5
ATOM      5  C   UNL     1     -15.501   7.840 -15.525  0.00  0.00    +0.117 A 
ATOM      6  C   UNL     1     -15.923   7.489 -14.247  0.00  0.00    +0.081 A 
ATOM      7  C   UNL     1     -15.681   6.233 -13.494  0.00  0.00    +0.069 C 
ATOM      8  N   UNL     1     -16.694   8.458 -13.606  0.00  0.00    -0.146 NA
ATOM      9  N   UNL     1     -16.893   9.520 -14.363  0.00  0.00    -0.110 NA
ATOM     10  S   UNL     1     -16.171   9.391 -15.860  0.00  0.00    +0.041 S 
ENDBRANCH   3   5
BRANCH   1  11
ATOM     11  C   UNL     1     -13.949   5.076 -17.523  0.00  0.00    +0.144 C 
BRANCH  11  16
ATOM     12  C   UNL     1     -10.466   3.209 -15.713  0.00  0.00    +0.004 A 
ATOM     13  C   UNL     1     -11.703   2.568 -15.708  0.00  0.00    +0.020 A 
ATOM     14  C   UNL     1     -12.818   3.177 -16.295  0.00  0.00    +0.048 A 
ATOM     15 CL   UNL     1     -14.307   2.296 -16.255  0.00  0.00    -0.083 Cl
ATOM     16  C   UNL     1     -12.727   4.447 -16.899  0.00  0.00    +0.023 A 
ATOM     17  C   UNL     1     -11.466   5.056 -16.900  0.00  0.00    +0.129 A 
ATOM     18  F   UNL     1     -11.287   6.248 -17.488  0.00  0.00    -0.205 F 
ATOM     19  C   UNL     1     -10.349   4.457 -16.315  0.00  0.00    +0.039 A 
ENDBRANCH  11  16
ENDBRANCH   1  11
TORSDOF 3
ENDMDL
MODEL 4
REMARK VINA RESULT:      -6.3      6.938      8.925
REMARK  Name = min_compound920.pdb
REMARK  4 active torsions:
REMARK  status: ('A' for Active; 'I' for Inactive)
REMARK    1  A    between atoms: _6  and  _16
REMARK    2  A    between atoms: _10  and  _11
REMARK    3  A    between atoms: _12  and  _18
REMARK    4  A    between atoms: _16  and  _17
REMARK                            x       y       z     vdW  Elec       q    Type
REMARK                         _______ _______ _______ _____ _____    ______ ____
ROOT
ATOM      1  N   UNL     1     -17.230   3.034  -7.182  0.00  0.00    -0.307 N 
ATOM      2  H   UNL     1     -17.365   3.830  -6.575  0.00  0.00    +0.149 HD
ATOM      3  C   UNL     1     -16.778   3.234  -8.472  0.00  0.00    +0.254 C 
ATOM      4  O   UNL     1     -16.347   2.289  -9.131  0.00  0.00    -0.270 OA
ENDROOT
BRANCH   3   5
ATOM      5  C   UNL     1     -16.815   4.594  -8.959  0.00  0.00    +0.117 A 
ATOM      6  C   UNL     1     -16.235   5.266 -10.031  0.00  0.00    +0.081 A 
ATOM      7  C   UNL     1     -15.303   4.748 -11.064  0.00  0.00    +0.069 C 
ATOM      8  N   UNL     1     -16.574   6.614 -10.121  0.00  0.00    -0.146 NA
ATOM      9  N   UNL     1     -17.370   6.996  -9.141  0.00  0.00    -0.110 NA
ATOM     10  S   UNL     1     -17.731   5.760  -8.083  0.00  0.00    +0.041 S 
ENDBRANCH   3   5
BRANCH   1  11
ATOM     11  C   UNL     1     -17.113   1.732  -6.560  0.00  0.00    +0.144 C 
BRANCH  11  16
ATOM     12  C   UNL     1     -13.602   1.140  -4.067  0.00  0.00    +0.004 A 
ATOM     13  C   UNL     1     -14.653   1.947  -3.638  0.00  0.00    +0.020 A 
ATOM     14  C   UNL     1     -15.780   2.130  -4.449  0.00  0.00    +0.048 A 
ATOM     15 CL   UNL     1     -17.042   3.135  -3.823  0.00  0.00    -0.083 Cl
ATOM     16  C   UNL     1     -15.883   1.514  -5.711  0.00  0.00    +0.023 A 
ATOM     17  C   UNL     1     -14.815   0.697  -6.104  0.00  0.00    +0.129 A 
ATOM     18  F   UNL     1     -14.854   0.046  -7.276  0.00  0.00    -0.205 F 
ATOM     19  C   UNL     1     -13.687   0.512  -5.305  0.00  0.00    +0.039 A 
ENDBRANCH  11  16
ENDBRANCH   1  11
TORSDOF 3
ENDMDL
MODEL 5
REMARK VINA RESULT:      -6.2      4.177      6.680
REMARK  Name = min_compound920.pdb
REMARK  4 active torsions:
REMARK  status: ('A' for Active; 'I' for Inactive)
REMARK    1  A    between atoms: _6  and  _16
REMARK    2  A    between atoms: _10  and  _11
REMARK    3  A    between atoms: _12  and  _18
REMARK    4  A    between atoms: _16  and  _17
REMARK                            x       y       z     vdW  Elec       q    Type
REMARK                         _______ _______ _______ _____ _____    ______ ____
ROOT
ATOM      1  N   UNL     1     -15.157   5.284 -15.932  0.00  0.00    -0.307 N 
ATOM      2  H   UNL     1     -15.412   4.565 -15.271  0.00  0.00    +0.149 HD
ATOM      3  C   UNL     1     -15.282   6.612 -15.571  0.00  0.00    +0.254 C 
ATOM      4  O   UNL     1     -14.730   7.489 -16.233  0.00  0.00    -0.270 OA
ENDROOT
BRANCH   3   5
ATOM      5  C   UNL     1     -16.055   6.881 -14.380  0.00  0.00    +0.117 A 
ATOM      6  C   UNL     1     -16.030   6.410 -13.071  0.00  0.00    +0.081 A 
ATOM      7  C   UNL     1     -15.146   5.383 -12.464  0.00  0.00    +0.069 C 
ATOM      8  N   UNL     1     -16.985   6.980 -12.232  0.00  0.00    -0.146 NA
ATOM      9  N   UNL     1     -17.751   7.848 -12.864  0.00  0.00    -0.110 NA
ATOM     10  S   UNL     1     -17.357   8.004 -14.476  0.00  0.00    +0.041 S 
ENDBRANCH   3   5
BRANCH   1  11
ATOM     11  C   UNL     1     -14.297   4.904 -17.033  0.00  0.00    +0.144 C 
BRANCH  11  16
ATOM     12  C   UNL     1     -10.418   3.259 -15.965  0.00  0.00    +0.004 A 
ATOM     13  C   UNL     1     -10.517   4.488 -16.613  0.00  0.00    +0.020 A 
ATOM     14  C   UNL     1     -11.772   5.010 -16.952  0.00  0.00    +0.048 A 
ATOM     15 CL   UNL     1     -11.796   6.551 -17.739  0.00  0.00    -0.083 Cl
ATOM     16  C   UNL     1     -12.960   4.314 -16.654  0.00  0.00    +0.023 A 
ATOM     17  C   UNL     1     -12.824   3.089 -15.988  0.00  0.00    +0.129 A 
ATOM     18  F   UNL     1     -13.909   2.382 -15.637  0.00  0.00    -0.205 F 
ATOM     19  C   UNL     1     -11.578   2.560 -15.650  0.00  0.00    +0.039 A 
ENDBRANCH  11  16
ENDBRANCH   1  11
TORSDOF 3
ENDMDL
MODEL 6
REMARK VINA RESULT:      -6.2      3.406      6.433
REMARK  Name = min_compound920.pdb
REMARK  4 active torsions:
REMARK  status: ('A' for Active; 'I' for Inactive)
REMARK    1  A    between atoms: _6  and  _16
REMARK    2  A    between atoms: _10  and  _11
REMARK    3  A    between atoms: _12  and  _18
REMARK    4  A    between atoms: _16  and  _17
REMARK                            x       y       z     vdW  Elec       q    Type
REMARK                         _______ _______ _______ _____ _____    ______ ____
ROOT
ATOM      1  N   UNL     1     -13.946   3.459 -14.795  0.00  0.00    -0.307 N 
ATOM      2  H   UNL     1     -13.627   2.979 -13.966  0.00  0.00    +0.149 HD
ATOM      3  C   UNL     1     -15.126   4.176 -14.753  0.00  0.00    +0.254 C 
ATOM      4  O   UNL     1     -15.393   4.981 -15.642  0.00  0.00    -0.270 OA
ENDROOT
BRANCH   3   5
ATOM      5  C   UNL     1     -15.976   3.941 -13.607  0.00  0.00    +0.117 A 
ATOM      6  C   UNL     1     -15.895   4.243 -12.252  0.00  0.00    +0.081 A 
ATOM      7  C   UNL     1     -14.806   4.927 -11.510  0.00  0.00    +0.069 C 
ATOM      8  N   UNL     1     -16.989   3.821 -11.498  0.00  0.00    -0.146 NA
ATOM      9  N   UNL     1     -17.885   3.187 -12.231  0.00  0.00    -0.110 NA
ATOM     10  S   UNL     1     -17.445   3.072 -13.834  0.00  0.00    +0.041 S 
ENDBRANCH   3   5
BRANCH   1  11
ATOM     11  C   UNL     1     -12.970   3.718 -15.833  0.00  0.00    +0.144 C 
BRANCH  11  16
ATOM     12  C   UNL     1     -10.696   0.301 -17.265  0.00  0.00    +0.004 A 
ATOM     13  C   UNL     1     -10.092   1.547 -17.115  0.00  0.00    +0.020 A 
ATOM     14  C   UNL     1     -10.833   2.641 -16.651  0.00  0.00    +0.048 A 
ATOM     15 CL   UNL     1      -9.993   4.144 -16.481  0.00  0.00    -0.083 Cl
ATOM     16  C   UNL     1     -12.199   2.518 -16.330  0.00  0.00    +0.023 A 
ATOM     17  C   UNL     1     -12.771   1.248 -16.477  0.00  0.00    +0.129 A 
ATOM     18  F   UNL     1     -14.056   1.039 -16.157  0.00  0.00    -0.205 F 
ATOM     19  C   UNL     1     -12.040   0.153 -16.941  0.00  0.00    +0.039 A 
ENDBRANCH  11  16
ENDBRANCH   1  11
TORSDOF 3
ENDMDL
MODEL 7
REMARK VINA RESULT:      -6.1      4.775      6.489
REMARK  Name = min_compound920.pdb
REMARK  4 active torsions:
REMARK  status: ('A' for Active; 'I' for Inactive)
REMARK    1  A    between atoms: _6  and  _16
REMARK    2  A    between atoms: _10  and  _11
REMARK    3  A    between atoms: _12  and  _18
REMARK    4  A    between atoms: _16  and  _17
REMARK                            x       y       z     vdW  Elec       q    Type
REMARK                         _______ _______ _______ _____ _____    ______ ____
ROOT
ATOM      1  N   UNL     1     -12.920   4.313 -17.709  0.00  0.00    -0.307 N 
ATOM      2  H   UNL     1     -13.810   3.986 -18.057  0.00  0.00    +0.149 HD
ATOM      3  C   UNL     1     -12.455   5.554 -18.096  0.00  0.00    +0.254 C 
ATOM      4  O   UNL     1     -11.530   6.087 -17.486  0.00  0.00    -0.270 OA
ENDROOT
BRANCH   3   5
ATOM      5  C   UNL     1     -13.134   6.172 -19.213  0.00  0.00    +0.117 A 
ATOM      6  C   UNL     1     -12.725   6.715 -20.427  0.00  0.00    +0.081 A 
ATOM      7  C   UNL     1     -11.352   6.860 -20.971  0.00  0.00    +0.069 C 
ATOM      8  N   UNL     1     -13.761   7.201 -21.222  0.00  0.00    -0.146 NA
ATOM      9  N   UNL     1     -14.940   7.069 -20.642  0.00  0.00    -0.110 NA
ATOM     10  S   UNL     1     -14.843   6.368 -19.133  0.00  0.00    +0.041 S 
ENDBRANCH   3   5
BRANCH   1  11
ATOM     11  C   UNL     1     -12.392   3.671 -16.523  0.00  0.00    +0.144 C 
BRANCH  11  16
ATOM     12  C   UNL     1     -10.721  -0.300 -17.093  0.00  0.00    +0.004 A 
ATOM     13  C   UNL     1     -12.046  -0.134 -16.698  0.00  0.00    +0.020 A 
ATOM     14  C   UNL     1     -12.576   1.150 -16.519  0.00  0.00    +0.048 A 
ATOM     15 CL   UNL     1     -14.237   1.256 -16.046  0.00  0.00    -0.083 Cl
ATOM     16  C   UNL     1     -11.791   2.301 -16.725  0.00  0.00    +0.023 A 
ATOM     17  C   UNL     1     -10.467   2.098 -17.136  0.00  0.00    +0.129 A 
ATOM     18  F   UNL     1      -9.666   3.144 -17.389  0.00  0.00    -0.205 F 
ATOM     19  C   UNL     1      -9.931   0.823 -17.314  0.00  0.00    +0.039 A 
ENDBRANCH  11  16
ENDBRANCH   1  11
TORSDOF 3
ENDMDL
MODEL 8
REMARK VINA RESULT:      -6.1      4.780      6.709
REMARK  Name = min_compound920.pdb
REMARK  4 active torsions:
REMARK  status: ('A' for Active; 'I' for Inactive)
REMARK    1  A    between atoms: _6  and  _16
REMARK    2  A    between atoms: _10  and  _11
REMARK    3  A    between atoms: _12  and  _18
REMARK    4  A    between atoms: _16  and  _17
REMARK                            x       y       z     vdW  Elec       q    Type
REMARK                         _______ _______ _______ _____ _____    ______ ____
ROOT
ATOM      1  N   UNL     1     -13.294   4.467 -17.442  0.00  0.00    -0.307 N 
ATOM      2  H   UNL     1     -13.933   3.820 -17.003  0.00  0.00    +0.149 HD
ATOM      3  C   UNL     1     -13.408   5.818 -17.176  0.00  0.00    +0.254 C 
ATOM      4  O   UNL     1     -12.493   6.586 -17.468  0.00  0.00    -0.270 OA
ENDROOT
BRANCH   3   5
ATOM      5  C   UNL     1     -14.626   6.241 -16.523  0.00  0.00    +0.117 A 
ATOM      6  C   UNL     1     -15.425   7.378 -16.586  0.00  0.00    +0.081 A 
ATOM      7  C   UNL     1     -15.235   8.611 -17.390  0.00  0.00    +0.069 C 
ATOM      8  N   UNL     1     -16.548   7.343 -15.760  0.00  0.00    -0.146 NA
ATOM      9  N   UNL     1     -16.613   6.231 -15.053  0.00  0.00    -0.110 NA
ATOM     10  S   UNL     1     -15.338   5.200 -15.350  0.00  0.00    +0.041 S 
ENDBRANCH   3   5
BRANCH   1  11
ATOM     11  C   UNL     1     -12.061   3.928 -17.975  0.00  0.00    +0.144 C 
BRANCH  11  16
ATOM     12  C   UNL     1     -10.744   0.154 -16.268  0.00  0.00    +0.004 A 
ATOM     13  C   UNL     1     -10.361   1.366 -15.699  0.00  0.00    +0.020 A 
ATOM     14  C   UNL     1     -10.793   2.577 -16.256  0.00  0.00    +0.048 A 
ATOM     15 CL   UNL     1     -10.280   4.030 -15.469  0.00  0.00    -0.083 Cl
ATOM     16  C   UNL     1     -11.614   2.606 -17.400  0.00  0.00    +0.023 A 
ATOM     17  C   UNL     1     -11.993   1.369 -17.937  0.00  0.00    +0.129 A 
ATOM     18  F   UNL     1     -12.804   1.311 -19.003  0.00  0.00    -0.205 F 
ATOM     19  C   UNL     1     -11.566   0.158 -17.390  0.00  0.00    +0.039 A 
ENDBRANCH  11  16
ENDBRANCH   1  11
TORSDOF 3
ENDMDL
MODEL 9
REMARK VINA RESULT:      -6.0      3.368      6.221
REMARK  Name = min_compound920.pdb
REMARK  4 active torsions:
REMARK  status: ('A' for Active; 'I' for Inactive)
REMARK    1  A    between atoms: _6  and  _16
REMARK    2  A    between atoms: _10  and  _11
REMARK    3  A    between atoms: _12  and  _18
REMARK    4  A    between atoms: _16  and  _17
REMARK                            x       y       z     vdW  Elec       q    Type
REMARK                         _______ _______ _______ _____ _____    ______ ____
ROOT
ATOM      1  N   UNL     1     -12.890   4.750 -16.618  0.00  0.00    -0.307 N 
ATOM      2  H   UNL     1     -12.496   5.549 -16.141  0.00  0.00    +0.149 HD
ATOM      3  C   UNL     1     -14.263   4.597 -16.662  0.00  0.00    +0.254 C 
ATOM      4  O   UNL     1     -14.772   3.806 -17.454  0.00  0.00    -0.270 OA
ENDROOT
BRANCH   3   5
ATOM      5  C   UNL     1     -15.029   5.431 -15.764  0.00  0.00    +0.117 A 
ATOM      6  C   UNL     1     -15.426   5.329 -14.435  0.00  0.00    +0.081 A 
ATOM      7  C   UNL     1     -15.185   4.228 -13.470  0.00  0.00    +0.069 C 
ATOM      8  N   UNL     1     -16.165   6.414 -13.967  0.00  0.00    -0.146 NA
ATOM      9  N   UNL     1     -16.365   7.323 -14.902  0.00  0.00    -0.110 NA
ATOM     10  S   UNL     1     -15.682   6.907 -16.364  0.00  0.00    +0.041 S 
ENDBRANCH   3   5
BRANCH   1  11
ATOM     11  C   UNL     1     -12.046   4.056 -17.567  0.00  0.00    +0.144 C 
BRANCH  11  16
ATOM     12  C   UNL     1     -10.695   0.089 -16.414  0.00  0.00    +0.004 A 
ATOM     13  C   UNL     1     -11.479   0.273 -17.550  0.00  0.00    +0.020 A 
ATOM     14  C   UNL     1     -11.908   1.555 -17.914  0.00  0.00    +0.048 A 
ATOM     15 CL   UNL     1     -12.864   1.686 -19.350  0.00  0.00    -0.083 Cl
ATOM     16  C   UNL     1     -11.567   2.687 -17.147  0.00  0.00    +0.023 A 
ATOM     17  C   UNL     1     -10.764   2.468 -16.020  0.00  0.00    +0.129 A 
ATOM     18  F   UNL     1     -10.365   3.498 -15.260  0.00  0.00    -0.205 F 
ATOM     19  C   UNL     1     -10.335   1.193 -15.649  0.00  0.00    +0.039 A 
ENDBRANCH  11  16
ENDBRANCH   1  11
TORSDOF 3
ENDMDL
