MODEL 1
REMARK VINA RESULT:      -6.7      0.000      0.000
REMARK  Name = min_compound959.pdb
REMARK  6 active torsions:
REMARK  status: ('A' for Active; 'I' for Inactive)
REMARK    1  A    between atoms: _1  and  _12
REMARK    2  A    between atoms: _6  and  _18
REMARK    3  A    between atoms: _9  and  _11
REMARK    4  A    between atoms: _9  and  _18
REMARK    5  A    between atoms: _11  and  _19
REMARK    6  A    between atoms: _19  and  _20
REMARK                            x       y       z     vdW  Elec       q    Type
REMARK                         _______ _______ _______ _____ _____    ______ ____
ROOT
ATOM      1  C   UNL     1     -12.378   1.805 -18.196  0.00  0.00    +0.338 C 
ATOM      2  N   UNL     1     -12.746   1.576 -19.484  0.00  0.00    -0.132 N 
ATOM      3  H   UNL     1     -12.548   0.804 -20.062  0.00  0.00    +0.323 HD
ATOM      4  N   UNL     1     -13.509   2.775 -19.778  0.00  0.00    -0.119 N 
ATOM      5  C   UNL     1     -14.652   2.896 -20.554  0.00  0.00    +0.069 C 
ATOM      6  C   UNL     1     -15.524   3.793 -20.035  0.00  0.00    +0.070 C 
ATOM      7  S   UNL     1     -15.009   4.496 -18.488  0.00  0.00    -0.045 S 
ATOM      8  C   UNL     1     -13.595   3.465 -18.597  0.00  0.00    +0.378 C 
ATOM      9  N   UNL     1     -12.844   2.887 -17.610  0.00  0.00    -0.031 NA
ENDROOT
BRANCH   1  10
ATOM     10  C   UNL     1     -11.498   0.832 -17.499  0.00  0.00    +0.067 A 
ATOM     11  C   UNL     1     -10.110   0.947 -17.654  0.00  0.00    +0.016 A 
ATOM     12  C   UNL     1      -9.247   0.056 -17.012  0.00  0.00    +0.001 A 
ATOM     13  C   UNL     1      -9.766  -0.956 -16.206  0.00  0.00    +0.000 A 
ATOM     14  C   UNL     1     -11.145  -1.080 -16.044  0.00  0.00    +0.001 A 
ATOM     15  C   UNL     1     -12.010  -0.188 -16.689  0.00  0.00    +0.016 A 
ENDBRANCH   1  10
BRANCH   5  16
ATOM     16  C   UNL     1     -14.790   2.083 -21.804  0.00  0.00    +0.175 C 
BRANCH  16  17
ATOM     17  C   UNL     1     -13.596   2.188 -22.727  0.00  0.00    +0.313 C 
ATOM     18  O   UNL     1     -12.672   1.384 -22.772  0.00  0.00    -0.250 OA
BRANCH  17  19
ATOM     19  O   UNL     1     -13.700   3.288 -23.531  0.00  0.00    -0.465 OA
BRANCH  19  20
ATOM     20  C   UNL     1     -12.525   4.102 -23.635  0.00  0.00    +0.229 C 
ATOM     21  C   UNL     1     -12.540   5.188 -22.577  0.00  0.00    +0.048 C 
ENDBRANCH  19  20
ENDBRANCH  17  19
ENDBRANCH  16  17
ENDBRANCH   5  16
TORSDOF 5
ENDMDL
MODEL 2
REMARK VINA RESULT:      -6.7      4.413      6.402
REMARK  Name = min_compound959.pdb
REMARK  6 active torsions:
REMARK  status: ('A' for Active; 'I' for Inactive)
REMARK    1  A    between atoms: _1  and  _12
REMARK    2  A    between atoms: _6  and  _18
REMARK    3  A    between atoms: _9  and  _11
REMARK    4  A    between atoms: _9  and  _18
REMARK    5  A    between atoms: _11  and  _19
REMARK    6  A    between atoms: _19  and  _20
REMARK                            x       y       z     vdW  Elec       q    Type
REMARK                         _______ _______ _______ _____ _____    ______ ____
ROOT
ATOM      1  C   UNL     1     -14.602   4.196 -14.972  0.00  0.00    +0.338 C 
ATOM      2  N   UNL     1     -13.426   3.545 -15.163  0.00  0.00    -0.132 N 
ATOM      3  H   UNL     1     -12.969   2.895 -14.581  0.00  0.00    +0.323 HD
ATOM      4  N   UNL     1     -13.022   4.064 -16.458  0.00  0.00    -0.119 N 
ATOM      5  C   UNL     1     -12.377   3.396 -17.487  0.00  0.00    +0.069 C 
ATOM      6  C   UNL     1     -12.833   3.778 -18.703  0.00  0.00    +0.070 C 
ATOM      7  S   UNL     1     -14.165   4.951 -18.644  0.00  0.00    -0.045 S 
ATOM      8  C   UNL     1     -14.069   4.831 -16.897  0.00  0.00    +0.378 C 
ATOM      9  N   UNL     1     -15.046   4.960 -15.948  0.00  0.00    -0.031 NA
ENDROOT
BRANCH   1  10
ATOM     10  C   UNL     1     -15.347   4.008 -13.700  0.00  0.00    +0.067 A 
ATOM     11  C   UNL     1     -16.467   3.166 -13.693  0.00  0.00    +0.016 A 
ATOM     12  C   UNL     1     -17.192   2.958 -12.517  0.00  0.00    +0.001 A 
ATOM     13  C   UNL     1     -16.801   3.589 -11.337  0.00  0.00    +0.000 A 
ATOM     14  C   UNL     1     -15.687   4.428 -11.333  0.00  0.00    +0.001 A 
ATOM     15  C   UNL     1     -14.961   4.638 -12.510  0.00  0.00    +0.016 A 
ENDBRANCH   1  10
BRANCH   5  16
ATOM     16  C   UNL     1     -11.310   2.395 -17.168  0.00  0.00    +0.175 C 
BRANCH  16  17
ATOM     17  C   UNL     1     -11.824   0.975 -17.071  0.00  0.00    +0.313 C 
ATOM     18  O   UNL     1     -12.834   0.635 -16.464  0.00  0.00    -0.250 OA
BRANCH  17  19
ATOM     19  O   UNL     1     -11.026   0.121 -17.779  0.00  0.00    -0.465 OA
BRANCH  19  20
ATOM     20  C   UNL     1      -9.668   0.019 -17.336  0.00  0.00    +0.229 C 
ATOM     21  C   UNL     1      -9.592  -0.768 -16.042  0.00  0.00    +0.048 C 
ENDBRANCH  19  20
ENDBRANCH  17  19
ENDBRANCH  16  17
ENDBRANCH   5  16
TORSDOF 5
ENDMDL
MODEL 3
REMARK VINA RESULT:      -6.7      3.224      3.689
REMARK  Name = min_compound959.pdb
REMARK  6 active torsions:
REMARK  status: ('A' for Active; 'I' for Inactive)
REMARK    1  A    between atoms: _1  and  _12
REMARK    2  A    between atoms: _6  and  _18
REMARK    3  A    between atoms: _9  and  _11
REMARK    4  A    between atoms: _9  and  _18
REMARK    5  A    between atoms: _11  and  _19
REMARK    6  A    between atoms: _19  and  _20
REMARK                            x       y       z     vdW  Elec       q    Type
REMARK                         _______ _______ _______ _____ _____    ______ ____
ROOT
ATOM      1  C   UNL     1     -12.086   2.976 -16.793  0.00  0.00    +0.338 C 
ATOM      2  N   UNL     1     -11.516   4.106 -17.286  0.00  0.00    -0.132 N 
ATOM      3  H   UNL     1     -10.659   4.220 -17.758  0.00  0.00    +0.323 HD
ATOM      4  N   UNL     1     -12.511   5.103 -16.932  0.00  0.00    -0.119 N 
ATOM      5  C   UNL     1     -12.906   6.216 -17.658  0.00  0.00    +0.069 C 
ATOM      6  C   UNL     1     -14.237   6.444 -17.551  0.00  0.00    +0.070 C 
ATOM      7  S   UNL     1     -15.108   5.229 -16.593  0.00  0.00    -0.045 S 
ATOM      8  C   UNL     1     -13.570   4.407 -16.410  0.00  0.00    +0.378 C 
ATOM      9  N   UNL     1     -13.291   3.074 -16.273  0.00  0.00    -0.031 NA
ENDROOT
BRANCH   1  10
ATOM     10  C   UNL     1     -11.353   1.687 -16.878  0.00  0.00    +0.067 A 
ATOM     11  C   UNL     1     -12.013   0.510 -16.501  0.00  0.00    +0.016 A 
ATOM     12  C   UNL     1     -11.361  -0.724 -16.571  0.00  0.00    +0.001 A 
ATOM     13  C   UNL     1     -10.044  -0.791 -17.021  0.00  0.00    +0.000 A 
ATOM     14  C   UNL     1      -9.377   0.375 -17.399  0.00  0.00    +0.001 A 
ATOM     15  C   UNL     1     -10.029   1.611 -17.328  0.00  0.00    +0.016 A 
ENDBRANCH   1  10
BRANCH   5  16
ATOM     16  C   UNL     1     -11.889   7.002 -18.426  0.00  0.00    +0.175 C 
BRANCH  16  17
ATOM     17  C   UNL     1     -11.823   6.634 -19.892  0.00  0.00    +0.313 C 
ATOM     18  O   UNL     1     -12.386   5.670 -20.399  0.00  0.00    -0.250 OA
BRANCH  17  19
ATOM     19  O   UNL     1     -11.074   7.542 -20.587  0.00  0.00    -0.465 OA
BRANCH  19  20
ATOM     20  C   UNL     1     -11.296   7.587 -22.001  0.00  0.00    +0.229 C 
ATOM     21  C   UNL     1     -10.390   8.617 -22.645  0.00  0.00    +0.048 C 
ENDBRANCH  19  20
ENDBRANCH  17  19
ENDBRANCH  16  17
ENDBRANCH   5  16
TORSDOF 5
ENDMDL
MODEL 4
REMARK VINA RESULT:      -6.6      2.881      4.117
REMARK  Name = min_compound959.pdb
REMARK  6 active torsions:
REMARK  status: ('A' for Active; 'I' for Inactive)
REMARK    1  A    between atoms: _1  and  _12
REMARK    2  A    between atoms: _6  and  _18
REMARK    3  A    between atoms: _9  and  _11
REMARK    4  A    between atoms: _9  and  _18
REMARK    5  A    between atoms: _11  and  _19
REMARK    6  A    between atoms: _19  and  _20
REMARK                            x       y       z     vdW  Elec       q    Type
REMARK                         _______ _______ _______ _____ _____    ______ ____
ROOT
ATOM      1  C   UNL     1     -12.477   1.810 -18.354  0.00  0.00    +0.338 C 
ATOM      2  N   UNL     1     -12.960   2.928 -17.752  0.00  0.00    -0.132 N 
ATOM      3  H   UNL     1     -12.765   3.290 -16.857  0.00  0.00    +0.323 HD
ATOM      4  N   UNL     1     -13.841   3.448 -18.783  0.00  0.00    -0.119 N 
ATOM      5  C   UNL     1     -14.079   4.771 -19.120  0.00  0.00    +0.069 C 
ATOM      6  C   UNL     1     -14.222   4.935 -20.458  0.00  0.00    +0.070 C 
ATOM      7  S   UNL     1     -13.988   3.449 -21.401  0.00  0.00    -0.045 S 
ATOM      8  C   UNL     1     -13.649   2.647 -19.878  0.00  0.00    +0.378 C 
ATOM      9  N   UNL     1     -12.831   1.586 -19.602  0.00  0.00    -0.031 NA
ENDROOT
BRANCH   1  10
ATOM     10  C   UNL     1     -11.564   0.909 -17.606  0.00  0.00    +0.067 A 
ATOM     11  C   UNL     1     -12.118  -0.102 -16.810  0.00  0.00    +0.016 A 
ATOM     12  C   UNL     1     -11.295  -0.975 -16.094  0.00  0.00    +0.001 A 
ATOM     13  C   UNL     1      -9.909  -0.845 -16.171  0.00  0.00    +0.000 A 
ATOM     14  C   UNL     1      -9.347   0.158 -16.961  0.00  0.00    +0.001 A 
ATOM     15  C   UNL     1     -10.171   1.033 -17.677  0.00  0.00    +0.016 A 
ENDBRANCH   1  10
BRANCH   5  16
ATOM     16  C   UNL     1     -14.157   5.809 -18.044  0.00  0.00    +0.175 C 
BRANCH  16  17
ATOM     17  C   UNL     1     -12.815   6.408 -17.685  0.00  0.00    +0.313 C 
ATOM     18  O   UNL     1     -12.380   7.468 -18.122  0.00  0.00    -0.250 OA
BRANCH  17  19
ATOM     19  O   UNL     1     -12.159   5.622 -16.780  0.00  0.00    -0.465 OA
BRANCH  19  20
ATOM     20  C   UNL     1     -10.772   5.384 -17.045  0.00  0.00    +0.229 C 
ATOM     21  C   UNL     1     -10.203   4.402 -16.040  0.00  0.00    +0.048 C 
ENDBRANCH  19  20
ENDBRANCH  17  19
ENDBRANCH  16  17
ENDBRANCH   5  16
TORSDOF 5
ENDMDL
MODEL 5
REMARK VINA RESULT:      -6.6      4.173      5.610
REMARK  Name = min_compound959.pdb
REMARK  6 active torsions:
REMARK  status: ('A' for Active; 'I' for Inactive)
REMARK    1  A    between atoms: _1  and  _12
REMARK    2  A    between atoms: _6  and  _18
REMARK    3  A    between atoms: _9  and  _11
REMARK    4  A    between atoms: _9  and  _18
REMARK    5  A    between atoms: _11  and  _19
REMARK    6  A    between atoms: _19  and  _20
REMARK                            x       y       z     vdW  Elec       q    Type
REMARK                         _______ _______ _______ _____ _____    ______ ____
ROOT
ATOM      1  C   UNL     1     -12.088   2.951 -17.396  0.00  0.00    +0.338 C 
ATOM      2  N   UNL     1     -13.369   3.130 -16.979  0.00  0.00    -0.132 N 
ATOM      3  H   UNL     1     -13.953   2.517 -16.475  0.00  0.00    +0.323 HD
ATOM      4  N   UNL     1     -13.644   4.467 -17.473  0.00  0.00    -0.119 N 
ATOM      5  C   UNL     1     -14.396   5.465 -16.873  0.00  0.00    +0.069 C 
ATOM      6  C   UNL     1     -13.857   6.692 -17.069  0.00  0.00    +0.070 C 
ATOM      7  S   UNL     1     -12.319   6.677 -17.957  0.00  0.00    -0.045 S 
ATOM      8  C   UNL     1     -12.460   4.929 -17.984  0.00  0.00    +0.378 C 
ATOM      9  N   UNL     1     -11.490   3.964 -17.985  0.00  0.00    -0.031 NA
ENDROOT
BRANCH   1  10
ATOM     10  C   UNL     1     -11.412   1.650 -17.157  0.00  0.00    +0.067 A 
ATOM     11  C   UNL     1     -12.175   0.568 -16.698  0.00  0.00    +0.016 A 
ATOM     12  C   UNL     1     -11.580  -0.674 -16.465  0.00  0.00    +0.001 A 
ATOM     13  C   UNL     1     -10.215  -0.844 -16.693  0.00  0.00    +0.000 A 
ATOM     14  C   UNL     1      -9.446   0.225 -17.151  0.00  0.00    +0.001 A 
ATOM     15  C   UNL     1     -10.042   1.470 -17.382  0.00  0.00    +0.016 A 
ENDBRANCH   1  10
BRANCH   5  16
ATOM     16  C   UNL     1     -15.645   5.108 -16.128  0.00  0.00    +0.175 C 
BRANCH  16  17
ATOM     17  C   UNL     1     -15.426   4.904 -14.645  0.00  0.00    +0.313 C 
ATOM     18  O   UNL     1     -15.526   5.781 -13.794  0.00  0.00    -0.250 OA
BRANCH  17  19
ATOM     19  O   UNL     1     -15.128   3.598 -14.374  0.00  0.00    -0.465 OA
BRANCH  19  20
ATOM     20  C   UNL     1     -16.212   2.669 -14.496  0.00  0.00    +0.229 C 
ATOM     21  C   UNL     1     -17.088   2.713 -13.260  0.00  0.00    +0.048 C 
ENDBRANCH  19  20
ENDBRANCH  17  19
ENDBRANCH  16  17
ENDBRANCH   5  16
TORSDOF 5
ENDMDL
MODEL 6
REMARK VINA RESULT:      -6.5      3.392      4.837
REMARK  Name = min_compound959.pdb
REMARK  6 active torsions:
REMARK  status: ('A' for Active; 'I' for Inactive)
REMARK    1  A    between atoms: _1  and  _12
REMARK    2  A    between atoms: _6  and  _18
REMARK    3  A    between atoms: _9  and  _11
REMARK    4  A    between atoms: _9  and  _18
REMARK    5  A    between atoms: _11  and  _19
REMARK    6  A    between atoms: _19  and  _20
REMARK                            x       y       z     vdW  Elec       q    Type
REMARK                         _______ _______ _______ _____ _____    ______ ____
ROOT
ATOM      1  C   UNL     1     -12.580   1.927 -17.936  0.00  0.00    +0.338 C 
ATOM      2  N   UNL     1     -13.068   2.893 -17.115  0.00  0.00    -0.132 N 
ATOM      3  H   UNL     1     -12.836   3.093 -16.179  0.00  0.00    +0.323 HD
ATOM      4  N   UNL     1     -14.021   3.553 -17.988  0.00  0.00    -0.119 N 
ATOM      5  C   UNL     1     -14.324   4.904 -18.064  0.00  0.00    +0.069 C 
ATOM      6  C   UNL     1     -14.546   5.303 -19.339  0.00  0.00    +0.070 C 
ATOM      7  S   UNL     1     -14.313   4.026 -20.551  0.00  0.00    -0.045 S 
ATOM      8  C   UNL     1     -13.863   2.975 -19.221  0.00  0.00    +0.378 C 
ATOM      9  N   UNL     1     -12.995   1.918 -19.185  0.00  0.00    -0.031 NA
ENDROOT
BRANCH   1  10
ATOM     10  C   UNL     1     -11.597   0.945 -17.411  0.00  0.00    +0.067 A 
ATOM     11  C   UNL     1     -10.236   1.146 -17.677  0.00  0.00    +0.016 A 
ATOM     12  C   UNL     1      -9.278   0.250 -17.198  0.00  0.00    +0.001 A 
ATOM     13  C   UNL     1      -9.673  -0.855 -16.446  0.00  0.00    +0.000 A 
ATOM     14  C   UNL     1     -11.026  -1.065 -16.174  0.00  0.00    +0.001 A 
ATOM     15  C   UNL     1     -11.986  -0.168 -16.655  0.00  0.00    +0.016 A 
ENDBRANCH   1  10
BRANCH   5  16
ATOM     16  C   UNL     1     -14.378   5.724 -16.812  0.00  0.00    +0.175 C 
BRANCH  16  17
ATOM     17  C   UNL     1     -15.428   5.256 -15.829  0.00  0.00    +0.313 C 
ATOM     18  O   UNL     1     -16.597   5.626 -15.823  0.00  0.00    -0.250 OA
BRANCH  17  19
ATOM     19  O   UNL     1     -14.907   4.337 -14.963  0.00  0.00    -0.465 OA
BRANCH  19  20
ATOM     20  C   UNL     1     -15.855   3.495 -14.295  0.00  0.00    +0.229 C 
ATOM     21  C   UNL     1     -16.022   2.189 -15.044  0.00  0.00    +0.048 C 
ENDBRANCH  19  20
ENDBRANCH  17  19
ENDBRANCH  16  17
ENDBRANCH   5  16
TORSDOF 5
ENDMDL
MODEL 7
REMARK VINA RESULT:      -6.5     11.032     13.364
REMARK  Name = min_compound959.pdb
REMARK  6 active torsions:
REMARK  status: ('A' for Active; 'I' for Inactive)
REMARK    1  A    between atoms: _1  and  _12
REMARK    2  A    between atoms: _6  and  _18
REMARK    3  A    between atoms: _9  and  _11
REMARK    4  A    between atoms: _9  and  _18
REMARK    5  A    between atoms: _11  and  _19
REMARK    6  A    between atoms: _19  and  _20
REMARK                            x       y       z     vdW  Elec       q    Type
REMARK                         _______ _______ _______ _____ _____    ______ ____
ROOT
ATOM      1  C   UNL     1     -16.766   3.436  -9.271  0.00  0.00    +0.338 C 
ATOM      2  N   UNL     1     -16.473   2.240  -8.697  0.00  0.00    -0.132 N 
ATOM      3  H   UNL     1     -15.994   1.467  -9.075  0.00  0.00    +0.323 HD
ATOM      4  N   UNL     1     -17.054   2.408  -7.377  0.00  0.00    -0.119 N 
ATOM      5  C   UNL     1     -16.572   1.945  -6.163  0.00  0.00    +0.069 C 
ATOM      6  C   UNL     1     -16.779   2.835  -5.163  0.00  0.00    +0.070 C 
ATOM      7  S   UNL     1     -17.525   4.358  -5.690  0.00  0.00    -0.045 S 
ATOM      8  C   UNL     1     -17.480   3.709  -7.318  0.00  0.00    +0.378 C 
ATOM      9  N   UNL     1     -17.348   4.348  -8.521  0.00  0.00    -0.031 NA
ENDROOT
BRANCH   1  10
ATOM     10  C   UNL     1     -16.405   3.678 -10.691  0.00  0.00    +0.067 A 
ATOM     11  C   UNL     1     -15.341   4.544 -10.978  0.00  0.00    +0.016 A 
ATOM     12  C   UNL     1     -14.966   4.794 -12.300  0.00  0.00    +0.001 A 
ATOM     13  C   UNL     1     -15.650   4.178 -13.347  0.00  0.00    +0.000 A 
ATOM     14  C   UNL     1     -16.710   3.314 -13.072  0.00  0.00    +0.001 A 
ATOM     15  C   UNL     1     -17.088   3.064 -11.749  0.00  0.00    +0.016 A 
ENDBRANCH   1  10
BRANCH   5  16
ATOM     16  C   UNL     1     -15.924   0.597  -6.086  0.00  0.00    +0.175 C 
BRANCH  16  17
ATOM     17  C   UNL     1     -14.428   0.633  -6.307  0.00  0.00    +0.313 C 
ATOM     18  O   UNL     1     -13.872   1.187  -7.249  0.00  0.00    -0.250 OA
BRANCH  17  19
ATOM     19  O   UNL     1     -13.772  -0.012  -5.296  0.00  0.00    -0.465 OA
BRANCH  19  20
ATOM     20  C   UNL     1     -14.179   0.331  -3.966  0.00  0.00    +0.229 C 
ATOM     21  C   UNL     1     -13.461   1.581  -3.499  0.00  0.00    +0.048 C 
ENDBRANCH  19  20
ENDBRANCH  17  19
ENDBRANCH  16  17
ENDBRANCH   5  16
TORSDOF 5
ENDMDL
MODEL 8
REMARK VINA RESULT:      -6.2      2.568      3.546
REMARK  Name = min_compound959.pdb
REMARK  6 active torsions:
REMARK  status: ('A' for Active; 'I' for Inactive)
REMARK    1  A    between atoms: _1  and  _12
REMARK    2  A    between atoms: _6  and  _18
REMARK    3  A    between atoms: _9  and  _11
REMARK    4  A    between atoms: _9  and  _18
REMARK    5  A    between atoms: _11  and  _19
REMARK    6  A    between atoms: _19  and  _20
REMARK                            x       y       z     vdW  Elec       q    Type
REMARK                         _______ _______ _______ _____ _____    ______ ____
ROOT
ATOM      1  C   UNL     1     -12.392   3.066 -16.432  0.00  0.00    +0.338 C 
ATOM      2  N   UNL     1     -11.894   4.172 -17.044  0.00  0.00    -0.132 N 
ATOM      3  H   UNL     1     -11.065   4.278 -17.565  0.00  0.00    +0.323 HD
ATOM      4  N   UNL     1     -12.913   5.156 -16.724  0.00  0.00    -0.119 N 
ATOM      5  C   UNL     1     -13.388   6.188 -17.518  0.00  0.00    +0.069 C 
ATOM      6  C   UNL     1     -14.721   6.372 -17.364  0.00  0.00    +0.070 C 
ATOM      7  S   UNL     1     -15.495   5.209 -16.269  0.00  0.00    -0.045 S 
ATOM      8  C   UNL     1     -13.916   4.465 -16.095  0.00  0.00    +0.378 C 
ATOM      9  N   UNL     1     -13.575   3.161 -15.863  0.00  0.00    -0.031 NA
ENDROOT
BRANCH   1  10
ATOM     10  C   UNL     1     -11.609   1.803 -16.447  0.00  0.00    +0.067 A 
ATOM     11  C   UNL     1     -11.804   0.902 -17.501  0.00  0.00    +0.016 A 
ATOM     12  C   UNL     1     -11.084  -0.294 -17.556  0.00  0.00    +0.001 A 
ATOM     13  C   UNL     1     -10.161  -0.597 -16.556  0.00  0.00    +0.000 A 
ATOM     14  C   UNL     1      -9.958   0.294 -15.502  0.00  0.00    +0.001 A 
ATOM     15  C   UNL     1     -10.680   1.491 -15.446  0.00  0.00    +0.016 A 
ENDBRANCH   1  10
BRANCH   5  16
ATOM     16  C   UNL     1     -12.441   6.945 -18.397  0.00  0.00    +0.175 C 
BRANCH  16  17
ATOM     17  C   UNL     1     -12.426   6.458 -19.829  0.00  0.00    +0.313 C 
ATOM     18  O   UNL     1     -12.449   7.183 -20.817  0.00  0.00    -0.250 OA
BRANCH  17  19
ATOM     19  O   UNL     1     -12.352   5.094 -19.876  0.00  0.00    -0.465 OA
BRANCH  19  20
ATOM     20  C   UNL     1     -13.338   4.440 -20.683  0.00  0.00    +0.229 C 
ATOM     21  C   UNL     1     -13.745   3.121 -20.055  0.00  0.00    +0.048 C 
ENDBRANCH  19  20
ENDBRANCH  17  19
ENDBRANCH  16  17
ENDBRANCH   5  16
TORSDOF 5
ENDMDL
MODEL 9
REMARK VINA RESULT:      -6.2      4.964      6.405
REMARK  Name = min_compound959.pdb
REMARK  6 active torsions:
REMARK  status: ('A' for Active; 'I' for Inactive)
REMARK    1  A    between atoms: _1  and  _12
REMARK    2  A    between atoms: _6  and  _18
REMARK    3  A    between atoms: _9  and  _11
REMARK    4  A    between atoms: _9  and  _18
REMARK    5  A    between atoms: _11  and  _19
REMARK    6  A    between atoms: _19  and  _20
REMARK                            x       y       z     vdW  Elec       q    Type
REMARK                         _______ _______ _______ _____ _____    ______ ____
ROOT
ATOM      1  C   UNL     1     -13.037   2.244 -16.736  0.00  0.00    +0.338 C 
ATOM      2  N   UNL     1     -14.187   1.803 -16.162  0.00  0.00    -0.132 N 
ATOM      3  H   UNL     1     -14.384   0.930 -15.750  0.00  0.00    +0.323 HD
ATOM      4  N   UNL     1     -15.046   2.962 -16.320  0.00  0.00    -0.119 N 
ATOM      5  C   UNL     1     -16.005   3.445 -15.443  0.00  0.00    +0.069 C 
ATOM      6  C   UNL     1     -16.032   4.799 -15.418  0.00  0.00    +0.070 C 
ATOM      7  S   UNL     1     -14.799   5.569 -16.437  0.00  0.00    -0.045 S 
ATOM      8  C   UNL     1     -14.250   3.952 -16.834  0.00  0.00    +0.378 C 
ATOM      9  N   UNL     1     -12.998   3.495 -17.145  0.00  0.00    -0.031 NA
ENDROOT
BRANCH   1  10
ATOM     10  C   UNL     1     -11.877   1.325 -16.857  0.00  0.00    +0.067 A 
ATOM     11  C   UNL     1     -12.044  -0.022 -16.511  0.00  0.00    +0.016 A 
ATOM     12  C   UNL     1     -10.980  -0.921 -16.616  0.00  0.00    +0.001 A 
ATOM     13  C   UNL     1      -9.739  -0.479 -17.072  0.00  0.00    +0.000 A 
ATOM     14  C   UNL     1      -9.561   0.859 -17.421  0.00  0.00    +0.001 A 
ATOM     15  C   UNL     1     -10.626   1.760 -17.314  0.00  0.00    +0.016 A 
ENDBRANCH   1  10
BRANCH   5  16
ATOM     16  C   UNL     1     -16.858   2.485 -14.673  0.00  0.00    +0.175 C 
BRANCH  16  17
ATOM     17  C   UNL     1     -17.553   3.115 -13.486  0.00  0.00    +0.313 C 
ATOM     18  O   UNL     1     -18.703   3.540 -13.491  0.00  0.00    -0.250 OA
BRANCH  17  19
ATOM     19  O   UNL     1     -16.735   3.119 -12.391  0.00  0.00    -0.465 OA
BRANCH  19  20
ATOM     20  C   UNL     1     -16.559   4.385 -11.744  0.00  0.00    +0.229 C 
ATOM     21  C   UNL     1     -15.085   4.688 -11.567  0.00  0.00    +0.048 C 
ENDBRANCH  19  20
ENDBRANCH  17  19
ENDBRANCH  16  17
ENDBRANCH   5  16
TORSDOF 5
ENDMDL
