MODEL 1
REMARK VINA RESULT:      -5.6      0.000      0.000
REMARK  Name = min_compound92.pdb
REMARK  1 active torsions:
REMARK  status: ('A' for Active; 'I' for Inactive)
REMARK    1  A    between atoms: _12  and  _13
REMARK                            x       y       z     vdW  Elec       q    Type
REMARK                         _______ _______ _______ _____ _____    ______ ____
ROOT
ATOM      1  O   UNL     1      -8.681  -0.018 -17.577  0.00  0.00    -0.268 OA
ATOM      2  C   UNL     1      -9.825   0.327 -17.307  0.00  0.00    +0.255 A 
ATOM      3  C   UNL     1     -10.209   1.752 -17.387  0.00  0.00    +0.099 A 
ATOM      4  C   UNL     1     -11.467   2.096 -17.086  0.00  0.00    +0.094 A 
ATOM      5  N   UNL     1     -12.369   1.134 -16.713  0.00  0.00    -0.305 N 
ATOM      6  H   UNL     1     -13.323   1.407 -16.486  0.00  0.00    +0.170 HD
ATOM      7  C   UNL     1     -12.082  -0.197 -16.618  0.00  0.00    +0.327 A 
ATOM      8  O   UNL     1     -12.919  -1.026 -16.280  0.00  0.00    -0.247 OA
ATOM      9  N   UNL     1     -10.799  -0.544 -16.926  0.00  0.00    -0.275 N 
ATOM     10  H   UNL     1     -10.561  -1.522 -16.864  0.00  0.00    +0.173 HD
ENDROOT
BRANCH   4  11
ATOM     11  C   UNL     1     -11.959   3.427 -17.125  0.00  0.00    +0.196 A 
ATOM     12  N   UNL     1     -11.175   4.509 -17.424  0.00  0.00    -0.238 N 
ATOM     13  H   UNL     1     -10.192   4.570 -17.654  0.00  0.00    +0.192 HD
ATOM     14  N   UNL     1     -11.900   5.634 -17.386  0.00  0.00    -0.046 NA
ATOM     15  N   UNL     1     -13.124   5.245 -17.065  0.00  0.00    -0.023 NA
ATOM     16  N   UNL     1     -13.178   3.884 -16.899  0.00  0.00    -0.107 NA
ENDBRANCH   4  11
TORSDOF 1
ENDMDL
MODEL 2
REMARK VINA RESULT:      -5.5      0.950      2.412
REMARK  Name = min_compound92.pdb
REMARK  1 active torsions:
REMARK  status: ('A' for Active; 'I' for Inactive)
REMARK    1  A    between atoms: _12  and  _13
REMARK                            x       y       z     vdW  Elec       q    Type
REMARK                         _______ _______ _______ _____ _____    ______ ____
ROOT
ATOM      1  O   UNL     1     -12.963  -1.060 -16.245  0.00  0.00    -0.268 OA
ATOM      2  C   UNL     1     -12.094  -0.279 -16.613  0.00  0.00    +0.255 A 
ATOM      3  C   UNL     1     -12.387   1.166 -16.712  0.00  0.00    +0.099 A 
ATOM      4  C   UNL     1     -11.416   1.993 -17.117  0.00  0.00    +0.094 A 
ATOM      5  N   UNL     1     -10.178   1.493 -17.431  0.00  0.00    -0.305 N 
ATOM      6  H   UNL     1      -9.448   2.131 -17.738  0.00  0.00    +0.170 HD
ATOM      7  C   UNL     1      -9.840   0.173 -17.362  0.00  0.00    +0.327 A 
ATOM      8  O   UNL     1      -8.721  -0.233 -17.652  0.00  0.00    -0.247 OA
ATOM      9  N   UNL     1     -10.832  -0.667 -16.948  0.00  0.00    -0.275 N 
ATOM     10  H   UNL     1     -10.608  -1.648 -16.889  0.00  0.00    +0.173 HD
ENDROOT
BRANCH   4  11
ATOM     11  C   UNL     1     -11.571   3.397 -17.253  0.00  0.00    +0.196 A 
ATOM     12  N   UNL     1     -12.467   3.974 -18.113  0.00  0.00    -0.238 N 
ATOM     13  H   UNL     1     -13.128   3.558 -18.755  0.00  0.00    +0.192 HD
ATOM     14  N   UNL     1     -12.397   5.309 -18.032  0.00  0.00    -0.046 NA
ATOM     15  N   UNL     1     -11.462   5.551 -17.127  0.00  0.00    -0.023 NA
ATOM     16  N   UNL     1     -10.941   4.380 -16.635  0.00  0.00    -0.107 NA
ENDBRANCH   4  11
TORSDOF 1
ENDMDL
MODEL 3
REMARK VINA RESULT:      -5.5      2.713      3.286
REMARK  Name = min_compound92.pdb
REMARK  1 active torsions:
REMARK  status: ('A' for Active; 'I' for Inactive)
REMARK    1  A    between atoms: _12  and  _13
REMARK                            x       y       z     vdW  Elec       q    Type
REMARK                         _______ _______ _______ _____ _____    ______ ____
ROOT
ATOM      1  O   UNL     1     -10.252  -0.539 -15.756  0.00  0.00    -0.268 OA
ATOM      2  C   UNL     1     -10.655   0.563 -16.105  0.00  0.00    +0.255 A 
ATOM      3  C   UNL     1     -11.612   0.685 -17.225  0.00  0.00    +0.099 A 
ATOM      4  C   UNL     1     -12.034   1.904 -17.581  0.00  0.00    +0.094 A 
ATOM      5  N   UNL     1     -11.577   3.009 -16.909  0.00  0.00    -0.305 N 
ATOM      6  H   UNL     1     -11.905   3.931 -17.189  0.00  0.00    +0.170 HD
ATOM      7  C   UNL     1     -10.695   2.969 -15.869  0.00  0.00    +0.327 A 
ATOM      8  O   UNL     1     -10.312   3.982 -15.295  0.00  0.00    -0.247 OA
ATOM      9  N   UNL     1     -10.268   1.724 -15.509  0.00  0.00    -0.275 N 
ATOM     10  H   UNL     1      -9.615   1.668 -14.742  0.00  0.00    +0.173 HD
ENDROOT
BRANCH   4  11
ATOM     11  C   UNL     1     -12.949   2.153 -18.636  0.00  0.00    +0.196 A 
ATOM     12  N   UNL     1     -12.890   1.516 -19.847  0.00  0.00    -0.238 N 
ATOM     13  H   UNL     1     -12.250   0.814 -20.194  0.00  0.00    +0.192 HD
ATOM     14  N   UNL     1     -13.874   1.946 -20.648  0.00  0.00    -0.046 NA
ATOM     15  N   UNL     1     -14.534   2.842 -19.932  0.00  0.00    -0.023 NA
ATOM     16  N   UNL     1     -13.976   2.983 -18.686  0.00  0.00    -0.107 NA
ENDBRANCH   4  11
TORSDOF 1
ENDMDL
MODEL 4
REMARK VINA RESULT:      -5.4      2.484      4.641
REMARK  Name = min_compound92.pdb
REMARK  1 active torsions:
REMARK  status: ('A' for Active; 'I' for Inactive)
REMARK    1  A    between atoms: _12  and  _13
REMARK                            x       y       z     vdW  Elec       q    Type
REMARK                         _______ _______ _______ _____ _____    ______ ____
ROOT
ATOM      1  O   UNL     1     -11.426   5.646 -17.280  0.00  0.00    -0.268 OA
ATOM      2  C   UNL     1     -11.847   4.553 -16.924  0.00  0.00    +0.255 A 
ATOM      3  C   UNL     1     -10.950   3.378 -16.913  0.00  0.00    +0.099 A 
ATOM      4  C   UNL     1     -11.441   2.198 -16.519  0.00  0.00    +0.094 A 
ATOM      5  N   UNL     1     -12.753   2.096 -16.134  0.00  0.00    -0.305 N 
ATOM      6  H   UNL     1     -13.115   1.193 -15.836  0.00  0.00    +0.170 HD
ATOM      7  C   UNL     1     -13.635   3.138 -16.120  0.00  0.00    +0.327 A 
ATOM      8  O   UNL     1     -14.801   3.004 -15.768  0.00  0.00    -0.247 OA
ATOM      9  N   UNL     1     -13.131   4.340 -16.523  0.00  0.00    -0.275 N 
ATOM     10  H   UNL     1     -13.762   5.126 -16.521  0.00  0.00    +0.173 HD
ENDROOT
BRANCH   4  11
ATOM     11  C   UNL     1     -10.684   0.999 -16.465  0.00  0.00    +0.196 A 
ATOM     12  N   UNL     1     -10.721   0.042 -17.444  0.00  0.00    -0.238 N 
ATOM     13  H   UNL     1     -11.242   0.003 -18.311  0.00  0.00    +0.192 HD
ATOM     14  N   UNL     1      -9.911  -0.977 -17.131  0.00  0.00    -0.046 NA
ATOM     15  N   UNL     1      -9.378  -0.648 -15.965  0.00  0.00    -0.023 NA
ATOM     16  N   UNL     1      -9.845   0.570 -15.539  0.00  0.00    -0.107 NA
ENDBRANCH   4  11
TORSDOF 1
ENDMDL
MODEL 5
REMARK VINA RESULT:      -5.4      2.544      4.685
REMARK  Name = min_compound92.pdb
REMARK  1 active torsions:
REMARK  status: ('A' for Active; 'I' for Inactive)
REMARK    1  A    between atoms: _12  and  _13
REMARK                            x       y       z     vdW  Elec       q    Type
REMARK                         _______ _______ _______ _____ _____    ______ ____
ROOT
ATOM      1  O   UNL     1     -11.189   5.704 -17.108  0.00  0.00    -0.268 OA
ATOM      2  C   UNL     1     -11.557   4.568 -17.377  0.00  0.00    +0.255 A 
ATOM      3  C   UNL     1     -10.787   3.402 -16.895  0.00  0.00    +0.099 A 
ATOM      4  C   UNL     1     -11.216   2.174 -17.206  0.00  0.00    +0.094 A 
ATOM      5  N   UNL     1     -12.351   2.016 -17.959  0.00  0.00    -0.305 N 
ATOM      6  H   UNL     1     -12.668   1.077 -18.190  0.00  0.00    +0.170 HD
ATOM      7  C   UNL     1     -13.109   3.046 -18.436  0.00  0.00    +0.327 A 
ATOM      8  O   UNL     1     -14.118   2.861 -19.107  0.00  0.00    -0.247 OA
ATOM      9  N   UNL     1     -12.668   4.297 -18.117  0.00  0.00    -0.275 N 
ATOM     10  H   UNL     1     -13.211   5.075 -18.457  0.00  0.00    +0.173 HD
ENDROOT
BRANCH   4  11
ATOM     11  C   UNL     1     -10.567   0.978 -16.805  0.00  0.00    +0.196 A 
ATOM     12  N   UNL     1     -10.550  -0.160 -17.566  0.00  0.00    -0.238 N 
ATOM     13  H   UNL     1     -10.956  -0.355 -18.472  0.00  0.00    +0.192 HD
ATOM     14  N   UNL     1      -9.868  -1.129 -16.943  0.00  0.00    -0.046 NA
ATOM     15  N   UNL     1      -9.466  -0.588 -15.803  0.00  0.00    -0.023 NA
ATOM     16  N   UNL     1      -9.890   0.713 -15.701  0.00  0.00    -0.107 NA
ENDBRANCH   4  11
TORSDOF 1
ENDMDL
MODEL 6
REMARK VINA RESULT:      -5.4      2.483      5.116
REMARK  Name = min_compound92.pdb
REMARK  1 active torsions:
REMARK  status: ('A' for Active; 'I' for Inactive)
REMARK    1  A    between atoms: _12  and  _13
REMARK                            x       y       z     vdW  Elec       q    Type
REMARK                         _______ _______ _______ _____ _____    ______ ____
ROOT
ATOM      1  O   UNL     1     -15.022   3.187 -16.261  0.00  0.00    -0.268 OA
ATOM      2  C   UNL     1     -13.806   3.211 -16.410  0.00  0.00    +0.255 A 
ATOM      3  C   UNL     1     -13.023   1.961 -16.326  0.00  0.00    +0.099 A 
ATOM      4  C   UNL     1     -11.697   2.021 -16.494  0.00  0.00    +0.094 A 
ATOM      5  N   UNL     1     -11.092   3.227 -16.739  0.00  0.00    -0.305 N 
ATOM      6  H   UNL     1     -10.082   3.260 -16.865  0.00  0.00    +0.170 HD
ATOM      7  C   UNL     1     -11.753   4.417 -16.829  0.00  0.00    +0.327 A 
ATOM      8  O   UNL     1     -11.174   5.474 -17.049  0.00  0.00    -0.247 OA
ATOM      9  N   UNL     1     -13.105   4.352 -16.657  0.00  0.00    -0.275 N 
ATOM     10  H   UNL     1     -13.618   5.218 -16.719  0.00  0.00    +0.173 HD
ENDROOT
BRANCH   4  11
ATOM     11  C   UNL     1     -10.835   0.895 -16.437  0.00  0.00    +0.196 A 
ATOM     12  N   UNL     1     -10.822  -0.090 -17.390  0.00  0.00    -0.238 N 
ATOM     13  H   UNL     1     -11.367  -0.199 -18.235  0.00  0.00    +0.192 HD
ATOM     14  N   UNL     1      -9.914  -1.024 -17.081  0.00  0.00    -0.046 NA
ATOM     15  N   UNL     1      -9.372  -0.616 -15.945  0.00  0.00    -0.023 NA
ATOM     16  N   UNL     1      -9.929   0.568 -15.533  0.00  0.00    -0.107 NA
ENDBRANCH   4  11
TORSDOF 1
ENDMDL
MODEL 7
REMARK VINA RESULT:      -5.3      2.735      3.213
REMARK  Name = min_compound92.pdb
REMARK  1 active torsions:
REMARK  status: ('A' for Active; 'I' for Inactive)
REMARK    1  A    between atoms: _12  and  _13
REMARK                            x       y       z     vdW  Elec       q    Type
REMARK                         _______ _______ _______ _____ _____    ______ ____
ROOT
ATOM      1  O   UNL     1     -10.250   4.175 -15.254  0.00  0.00    -0.268 OA
ATOM      2  C   UNL     1     -10.694   3.208 -15.860  0.00  0.00    +0.255 A 
ATOM      3  C   UNL     1     -11.638   3.402 -16.980  0.00  0.00    +0.099 A 
ATOM      4  C   UNL     1     -12.104   2.325 -17.622  0.00  0.00    +0.094 A 
ATOM      5  N   UNL     1     -11.705   1.071 -17.235  0.00  0.00    -0.305 N 
ATOM      6  H   UNL     1     -12.067   0.260 -17.730  0.00  0.00    +0.170 HD
ATOM      7  C   UNL     1     -10.839   0.821 -16.211  0.00  0.00    +0.327 A 
ATOM      8  O   UNL     1     -10.507  -0.317 -15.897  0.00  0.00    -0.247 OA
ATOM      9  N   UNL     1     -10.365   1.921 -15.559  0.00  0.00    -0.275 N 
ATOM     10  H   UNL     1      -9.722   1.763 -14.799  0.00  0.00    +0.173 HD
ENDROOT
BRANCH   4  11
ATOM     11  C   UNL     1     -13.013   2.378 -18.711  0.00  0.00    +0.196 A 
ATOM     12  N   UNL     1     -12.901   1.586 -19.822  0.00  0.00    -0.238 N 
ATOM     13  H   UNL     1     -12.219   0.879 -20.063  0.00  0.00    +0.192 HD
ATOM     14  N   UNL     1     -13.891   1.849 -20.684  0.00  0.00    -0.046 NA
ATOM     15  N   UNL     1     -14.609   2.799 -20.105  0.00  0.00    -0.023 NA
ATOM     16  N   UNL     1     -14.080   3.138 -18.885  0.00  0.00    -0.107 NA
ENDBRANCH   4  11
TORSDOF 1
ENDMDL
MODEL 8
REMARK VINA RESULT:      -5.2      2.674      4.970
REMARK  Name = min_compound92.pdb
REMARK  1 active torsions:
REMARK  status: ('A' for Active; 'I' for Inactive)
REMARK    1  A    between atoms: _12  and  _13
REMARK                            x       y       z     vdW  Elec       q    Type
REMARK                         _______ _______ _______ _____ _____    ______ ____
ROOT
ATOM      1  O   UNL     1     -14.230   2.903 -19.718  0.00  0.00    -0.268 OA
ATOM      2  C   UNL     1     -13.296   3.042 -18.939  0.00  0.00    +0.255 A 
ATOM      3  C   UNL     1     -12.585   1.859 -18.411  0.00  0.00    +0.099 A 
ATOM      4  C   UNL     1     -11.568   2.046 -17.562  0.00  0.00    +0.094 A 
ATOM      5  N   UNL     1     -11.204   3.317 -17.198  0.00  0.00    -0.305 N 
ATOM      6  H   UNL     1     -10.429   3.447 -16.552  0.00  0.00    +0.170 HD
ATOM      7  C   UNL     1     -11.816   4.451 -17.647  0.00  0.00    +0.327 A 
ATOM      8  O   UNL     1     -11.459   5.570 -17.297  0.00  0.00    -0.247 OA
ATOM      9  N   UNL     1     -12.852   4.257 -18.512  0.00  0.00    -0.275 N 
ATOM     10  H   UNL     1     -13.321   5.080 -18.858  0.00  0.00    +0.173 HD
ENDROOT
BRANCH   4  11
ATOM     11  C   UNL     1     -10.807   0.995 -16.987  0.00  0.00    +0.196 A 
ATOM     12  N   UNL     1     -10.670  -0.238 -17.568  0.00  0.00    -0.238 N 
ATOM     13  H   UNL     1     -11.044  -0.607 -18.432  0.00  0.00    +0.192 HD
ATOM     14  N   UNL     1      -9.902  -1.029 -16.808  0.00  0.00    -0.046 NA
ATOM     15  N   UNL     1      -9.568  -0.285 -15.765  0.00  0.00    -0.023 NA
ATOM     16  N   UNL     1     -10.120   0.968 -15.859  0.00  0.00    -0.107 NA
ENDBRANCH   4  11
TORSDOF 1
ENDMDL
MODEL 9
REMARK VINA RESULT:      -5.1     13.403     14.638
REMARK  Name = min_compound92.pdb
REMARK  1 active torsions:
REMARK  status: ('A' for Active; 'I' for Inactive)
REMARK    1  A    between atoms: _12  and  _13
REMARK                            x       y       z     vdW  Elec       q    Type
REMARK                         _______ _______ _______ _____ _____    ______ ____
ROOT
ATOM      1  O   UNL     1     -13.386   2.441  -3.397  0.00  0.00    -0.268 OA
ATOM      2  C   UNL     1     -13.761   1.396  -3.915  0.00  0.00    +0.255 A 
ATOM      3  C   UNL     1     -14.073   0.220  -3.075  0.00  0.00    +0.099 A 
ATOM      4  C   UNL     1     -14.480  -0.906  -3.672  0.00  0.00    +0.094 A 
ATOM      5  N   UNL     1     -14.600  -0.952  -5.037  0.00  0.00    -0.305 N 
ATOM      6  H   UNL     1     -14.911  -1.814  -5.480  0.00  0.00    +0.170 HD
ATOM      7  C   UNL     1     -14.329   0.094  -5.871  0.00  0.00    +0.327 A 
ATOM      8  O   UNL     1     -14.450   0.010  -7.088  0.00  0.00    -0.247 OA
ATOM      9  N   UNL     1     -13.914   1.240  -5.259  0.00  0.00    -0.275 N 
ATOM     10  H   UNL     1     -13.708   2.028  -5.853  0.00  0.00    +0.173 HD
ENDROOT
BRANCH   4  11
ATOM     11  C   UNL     1     -14.810  -2.100  -2.979  0.00  0.00    +0.196 A 
ATOM     12  N   UNL     1     -15.993  -2.767  -3.154  0.00  0.00    -0.238 N 
ATOM     13  H   UNL     1     -16.785  -2.564  -3.749  0.00  0.00    +0.192 HD
ATOM     14  N   UNL     1     -16.033  -3.856  -2.375  0.00  0.00    -0.046 NA
ATOM     15  N   UNL     1     -14.880  -3.858  -1.726  0.00  0.00    -0.023 NA
ATOM     16  N   UNL     1     -14.112  -2.779  -2.087  0.00  0.00    -0.107 NA
ENDBRANCH   4  11
TORSDOF 1
ENDMDL
