MODEL 1
REMARK VINA RESULT:      -4.8      0.000      0.000
REMARK  Name = min_compound1.pdb
REMARK  3 active torsions:
REMARK  status: ('A' for Active; 'I' for Inactive)
REMARK    1  A    between atoms: _2  and  _7
REMARK    2  A    between atoms: _3  and  _9
REMARK    3  A    between atoms: _7  and  _8
REMARK                            x       y       z     vdW  Elec       q    Type
REMARK                         _______ _______ _______ _____ _____    ______ ____
ROOT
ATOM      1  N   UNK A   1     -10.272   1.145 -17.789  0.00  0.00    -0.254 NA
ATOM      2  C   UNK A   0      -9.277   0.397 -17.264  0.00  0.00    +0.111 A 
ATOM      3  C   UNK A   0      -9.488  -0.697 -16.442  0.00  0.00    +0.023 A 
ATOM      4  C   UNK A   1     -10.798  -1.052 -16.137  0.00  0.00    +0.049 A 
ATOM      5  C   UNK A   1     -11.841  -0.295 -16.662  0.00  0.00    +0.140 A 
ATOM      6  C   UNK A   1     -11.551   0.802 -17.477  0.00  0.00    +0.108 A 
ENDROOT
BRANCH   5   7
ATOM      7  O   UNK A   1     -13.140  -0.614 -16.376  0.00  0.00    -0.505 OA
ATOM      8  H   UNK A   1     -13.474  -1.208 -17.070  0.00  0.00    +0.292 HD
ENDBRANCH   5   7
BRANCH   6   9
ATOM      9  C   UNK A   1     -12.649   1.633 -18.107  0.00  0.00    +0.214 C 
BRANCH   9  10
ATOM     10  O   UNK A   1     -12.770   1.455 -19.520  0.00  0.00    -0.389 OA
ATOM     11  H   UNK A   1     -12.253   0.655 -19.730  0.00  0.00    +0.210 HD
ENDBRANCH   9  10
ENDBRANCH   6   9
TORSDOF 3
ENDMDL
MODEL 2
REMARK VINA RESULT:      -4.7      2.458      3.494
REMARK  Name = min_compound1.pdb
REMARK  3 active torsions:
REMARK  status: ('A' for Active; 'I' for Inactive)
REMARK    1  A    between atoms: _2  and  _7
REMARK    2  A    between atoms: _3  and  _9
REMARK    3  A    between atoms: _7  and  _8
REMARK                            x       y       z     vdW  Elec       q    Type
REMARK                         _______ _______ _______ _____ _____    ______ ____
ROOT
ATOM      1  N   UNK A   1     -11.967   2.488 -17.838  0.00  0.00    -0.254 NA
ATOM      2  C   UNK A   0     -11.844   3.797 -17.530  0.00  0.00    +0.111 A 
ATOM      3  C   UNK A   0     -11.126   4.268 -16.443  0.00  0.00    +0.023 A 
ATOM      4  C   UNK A   1     -10.492   3.343 -15.619  0.00  0.00    +0.049 A 
ATOM      5  C   UNK A   1     -10.606   1.989 -15.913  0.00  0.00    +0.140 A 
ATOM      6  C   UNK A   1     -11.356   1.586 -17.022  0.00  0.00    +0.108 A 
ENDROOT
BRANCH   5   7
ATOM      7  O   UNK A   1     -10.000   1.054 -15.119  0.00  0.00    -0.505 OA
ATOM      8  H   UNK A   1      -9.241   1.470 -14.675  0.00  0.00    +0.292 HD
ENDBRANCH   5   7
BRANCH   6   9
ATOM      9  C   UNK A   1     -11.477   0.128 -17.410  0.00  0.00    +0.214 C 
BRANCH   9  10
ATOM     10  O   UNK A   1     -12.317  -0.634 -16.540  0.00  0.00    -0.389 OA
ATOM     11  H   UNK A   1     -12.415  -0.097 -15.732  0.00  0.00    +0.210 HD
ENDBRANCH   9  10
ENDBRANCH   6   9
TORSDOF 3
ENDMDL
MODEL 3
REMARK VINA RESULT:      -4.6      2.623      2.936
REMARK  Name = min_compound1.pdb
REMARK  3 active torsions:
REMARK  status: ('A' for Active; 'I' for Inactive)
REMARK    1  A    between atoms: _2  and  _7
REMARK    2  A    between atoms: _3  and  _9
REMARK    3  A    between atoms: _7  and  _8
REMARK                            x       y       z     vdW  Elec       q    Type
REMARK                         _______ _______ _______ _____ _____    ______ ____
ROOT
ATOM      1  N   UNK A   1     -12.545   0.417 -16.694  0.00  0.00    -0.254 NA
ATOM      2  C   UNK A   0     -11.734  -0.656 -16.568  0.00  0.00    +0.111 A 
ATOM      3  C   UNK A   0     -10.459  -0.597 -16.031  0.00  0.00    +0.023 A 
ATOM      4  C   UNK A   1      -9.981   0.635 -15.596  0.00  0.00    +0.049 A 
ATOM      5  C   UNK A   1     -10.796   1.756 -15.718  0.00  0.00    +0.140 A 
ATOM      6  C   UNK A   1     -12.069   1.622 -16.279  0.00  0.00    +0.108 A 
ENDROOT
BRANCH   5   7
ATOM      7  O   UNK A   1     -10.353   2.982 -15.305  0.00  0.00    -0.505 OA
ATOM      8  H   UNK A   1     -11.103   3.470 -14.922  0.00  0.00    +0.292 HD
ENDBRANCH   5   7
BRANCH   6   9
ATOM      9  C   UNK A   1     -13.011   2.802 -16.397  0.00  0.00    +0.214 C 
BRANCH   9  10
ATOM     10  O   UNK A   1     -13.180   3.532 -15.180  0.00  0.00    -0.389 OA
ATOM     11  H   UNK A   1     -13.080   2.876 -14.464  0.00  0.00    +0.210 HD
ENDBRANCH   9  10
ENDBRANCH   6   9
TORSDOF 3
ENDMDL
MODEL 4
REMARK VINA RESULT:      -4.5      2.215      2.297
REMARK  Name = min_compound1.pdb
REMARK  3 active torsions:
REMARK  status: ('A' for Active; 'I' for Inactive)
REMARK    1  A    between atoms: _2  and  _7
REMARK    2  A    between atoms: _3  and  _9
REMARK    3  A    between atoms: _7  and  _8
REMARK                            x       y       z     vdW  Elec       q    Type
REMARK                         _______ _______ _______ _____ _____    ______ ____
ROOT
ATOM      1  N   UNK A   1     -11.286   0.482 -17.950  0.00  0.00    -0.254 NA
ATOM      2  C   UNK A   0     -10.633  -0.622 -17.525  0.00  0.00    +0.111 A 
ATOM      3  C   UNK A   0      -9.962  -0.702 -16.317  0.00  0.00    +0.023 A 
ATOM      4  C   UNK A   1      -9.956   0.415 -15.489  0.00  0.00    +0.049 A 
ATOM      5  C   UNK A   1     -10.617   1.566 -15.905  0.00  0.00    +0.140 A 
ATOM      6  C   UNK A   1     -11.266   1.577 -17.143  0.00  0.00    +0.108 A 
ENDROOT
BRANCH   5   7
ATOM      7  O   UNK A   1     -10.625   2.684 -15.116  0.00  0.00    -0.505 OA
ATOM      8  H   UNK A   1     -10.855   2.421 -14.208  0.00  0.00    +0.292 HD
ENDBRANCH   5   7
BRANCH   6   9
ATOM      9  C   UNK A   1     -12.036   2.789 -17.624  0.00  0.00    +0.214 C 
BRANCH   9  10
ATOM     10  O   UNK A   1     -11.286   4.005 -17.580  0.00  0.00    -0.389 OA
ATOM     11  H   UNK A   1     -11.756   4.625 -18.170  0.00  0.00    +0.210 HD
ENDBRANCH   9  10
ENDBRANCH   6   9
TORSDOF 3
ENDMDL
MODEL 5
REMARK VINA RESULT:      -4.5      1.584      1.687
REMARK  Name = min_compound1.pdb
REMARK  3 active torsions:
REMARK  status: ('A' for Active; 'I' for Inactive)
REMARK    1  A    between atoms: _2  and  _7
REMARK    2  A    between atoms: _3  and  _9
REMARK    3  A    between atoms: _7  and  _8
REMARK                            x       y       z     vdW  Elec       q    Type
REMARK                         _______ _______ _______ _____ _____    ______ ____
ROOT
ATOM      1  N   UNK A   1     -11.018  -0.045 -18.016  0.00  0.00    -0.254 NA
ATOM      2  C   UNK A   0     -10.075  -0.750 -17.354  0.00  0.00    +0.111 A 
ATOM      3  C   UNK A   0      -9.598  -0.408 -16.100  0.00  0.00    +0.023 A 
ATOM      4  C   UNK A   1     -10.116   0.725 -15.482  0.00  0.00    +0.049 A 
ATOM      5  C   UNK A   1     -11.086   1.470 -16.144  0.00  0.00    +0.140 A 
ATOM      6  C   UNK A   1     -11.513   1.070 -17.413  0.00  0.00    +0.108 A 
ENDROOT
BRANCH   5   7
ATOM      7  O   UNK A   1     -11.611   2.593 -15.566  0.00  0.00    -0.505 OA
ATOM      8  H   UNK A   1     -12.333   2.923 -16.129  0.00  0.00    +0.292 HD
ENDBRANCH   5   7
BRANCH   6   9
ATOM      9  C   UNK A   1     -12.595   1.821 -18.159  0.00  0.00    +0.214 C 
BRANCH   9  10
ATOM     10  O   UNK A   1     -12.699   1.466 -19.540  0.00  0.00    -0.389 OA
ATOM     11  H   UNK A   1     -13.491   0.900 -19.607  0.00  0.00    +0.210 HD
ENDBRANCH   9  10
ENDBRANCH   6   9
TORSDOF 3
ENDMDL
MODEL 6
REMARK VINA RESULT:      -4.5     12.671     13.747
REMARK  Name = min_compound1.pdb
REMARK  3 active torsions:
REMARK  status: ('A' for Active; 'I' for Inactive)
REMARK    1  A    between atoms: _2  and  _7
REMARK    2  A    between atoms: _3  and  _9
REMARK    3  A    between atoms: _7  and  _8
REMARK                            x       y       z     vdW  Elec       q    Type
REMARK                         _______ _______ _______ _____ _____    ______ ____
ROOT
ATOM      1  N   UNK A   1     -14.338   0.015  -3.022  0.00  0.00    -0.254 NA
ATOM      2  C   UNK A   0     -14.059   1.217  -3.572  0.00  0.00    +0.111 A 
ATOM      3  C   UNK A   0     -13.947   1.431  -4.936  0.00  0.00    +0.023 A 
ATOM      4  C   UNK A   1     -14.131   0.351  -5.792  0.00  0.00    +0.049 A 
ATOM      5  C   UNK A   1     -14.416  -0.898  -5.250  0.00  0.00    +0.140 A 
ATOM      6  C   UNK A   1     -14.504  -1.042  -3.863  0.00  0.00    +0.108 A 
ENDROOT
BRANCH   5   7
ATOM      7  O   UNK A   1     -14.596  -1.982  -6.065  0.00  0.00    -0.505 OA
ATOM      8  H   UNK A   1     -15.084  -2.664  -5.571  0.00  0.00    +0.292 HD
ENDBRANCH   5   7
BRANCH   6   9
ATOM      9  C   UNK A   1     -14.852  -2.369  -3.224  0.00  0.00    +0.214 C 
BRANCH   9  10
ATOM     10  O   UNK A   1     -16.219  -2.752  -3.392  0.00  0.00    -0.389 OA
ATOM     11  H   UNK A   1     -16.491  -2.384  -4.254  0.00  0.00    +0.210 HD
ENDBRANCH   9  10
ENDBRANCH   6   9
TORSDOF 3
ENDMDL
MODEL 7
REMARK VINA RESULT:      -4.5     11.820     12.628
REMARK  Name = min_compound1.pdb
REMARK  3 active torsions:
REMARK  status: ('A' for Active; 'I' for Inactive)
REMARK    1  A    between atoms: _2  and  _7
REMARK    2  A    between atoms: _3  and  _9
REMARK    3  A    between atoms: _7  and  _8
REMARK                            x       y       z     vdW  Elec       q    Type
REMARK                         _______ _______ _______ _____ _____    ______ ____
ROOT
ATOM      1  N   UNK A   1     -14.025   1.350  -4.642  0.00  0.00    -0.254 NA
ATOM      2  C   UNK A   0     -14.031   0.944  -3.353  0.00  0.00    +0.111 A 
ATOM      3  C   UNK A   0     -14.265  -0.362  -2.958  0.00  0.00    +0.023 A 
ATOM      4  C   UNK A   1     -14.506  -1.317  -3.941  0.00  0.00    +0.049 A 
ATOM      5  C   UNK A   1     -14.508  -0.924  -5.276  0.00  0.00    +0.140 A 
ATOM      6  C   UNK A   1     -14.274   0.415  -5.599  0.00  0.00    +0.108 A 
ENDROOT
BRANCH   5   7
ATOM      7  O   UNK A   1     -14.748  -1.837  -6.266  0.00  0.00    -0.505 OA
ATOM      8  H   UNK A   1     -15.181  -1.382  -7.009  0.00  0.00    +0.292 HD
ENDBRANCH   5   7
BRANCH   6   9
ATOM      9  C   UNK A   1     -14.224   0.887  -7.037  0.00  0.00    +0.214 C 
BRANCH   9  10
ATOM     10  O   UNK A   1     -15.473   0.782  -7.724  0.00  0.00    -0.389 OA
ATOM     11  H   UNK A   1     -15.916  -0.001  -7.346  0.00  0.00    +0.210 HD
ENDBRANCH   9  10
ENDBRANCH   6   9
TORSDOF 3
ENDMDL
MODEL 8
REMARK VINA RESULT:      -4.4      1.702      2.094
REMARK  Name = min_compound1.pdb
REMARK  3 active torsions:
REMARK  status: ('A' for Active; 'I' for Inactive)
REMARK    1  A    between atoms: _2  and  _7
REMARK    2  A    between atoms: _3  and  _9
REMARK    3  A    between atoms: _7  and  _8
REMARK                            x       y       z     vdW  Elec       q    Type
REMARK                         _______ _______ _______ _____ _____    ______ ____
ROOT
ATOM      1  N   UNK A   1     -10.765   1.566 -15.528  0.00  0.00    -0.254 NA
ATOM      2  C   UNK A   0     -10.015   0.444 -15.458  0.00  0.00    +0.111 A 
ATOM      3  C   UNK A   0      -9.953  -0.503 -16.465  0.00  0.00    +0.023 A 
ATOM      4  C   UNK A   1     -10.703  -0.293 -17.618  0.00  0.00    +0.049 A 
ATOM      5  C   UNK A   1     -11.486   0.852 -17.713  0.00  0.00    +0.140 A 
ATOM      6  C   UNK A   1     -11.508   1.761 -16.651  0.00  0.00    +0.108 A 
ENDROOT
BRANCH   5   7
ATOM      7  O   UNK A   1     -12.241   1.085 -18.830  0.00  0.00    -0.505 OA
ATOM      8  H   UNK A   1     -12.064   0.379 -19.477  0.00  0.00    +0.292 HD
ENDBRANCH   5   7
BRANCH   6   9
ATOM      9  C   UNK A   1     -12.310   3.043 -16.721  0.00  0.00    +0.214 C 
BRANCH   9  10
ATOM     10  O   UNK A   1     -13.700   2.842 -16.988  0.00  0.00    -0.389 OA
ATOM     11  H   UNK A   1     -13.955   3.554 -17.604  0.00  0.00    +0.210 HD
ENDBRANCH   9  10
ENDBRANCH   6   9
TORSDOF 3
ENDMDL
MODEL 9
REMARK VINA RESULT:      -4.3     11.924     12.773
REMARK  Name = min_compound1.pdb
REMARK  3 active torsions:
REMARK  status: ('A' for Active; 'I' for Inactive)
REMARK    1  A    between atoms: _2  and  _7
REMARK    2  A    between atoms: _3  and  _9
REMARK    3  A    between atoms: _7  and  _8
REMARK                            x       y       z     vdW  Elec       q    Type
REMARK                         _______ _______ _______ _____ _____    ______ ____
ROOT
ATOM      1  N   UNK A   1     -15.289   1.466  -5.644  0.00  0.00    -0.254 NA
ATOM      2  C   UNK A   0     -14.881   1.985  -4.465  0.00  0.00    +0.111 A 
ATOM      3  C   UNK A   0     -14.300   1.236  -3.455  0.00  0.00    +0.023 A 
ATOM      4  C   UNK A   1     -14.124  -0.128  -3.661  0.00  0.00    +0.049 A 
ATOM      5  C   UNK A   1     -14.538  -0.687  -4.865  0.00  0.00    +0.140 A 
ATOM      6  C   UNK A   1     -15.126   0.128  -5.836  0.00  0.00    +0.108 A 
ENDROOT
BRANCH   5   7
ATOM      7  O   UNK A   1     -14.384  -2.026  -5.096  0.00  0.00    -0.505 OA
ATOM      8  H   UNK A   1     -15.113  -2.502  -4.662  0.00  0.00    +0.292 HD
ENDBRANCH   5   7
BRANCH   6   9
ATOM      9  C   UNK A   1     -15.556  -0.421  -7.179  0.00  0.00    +0.214 C 
BRANCH   9  10
ATOM     10  O   UNK A   1     -16.330  -1.620  -7.093  0.00  0.00    -0.389 OA
ATOM     11  H   UNK A   1     -16.057  -2.050  -6.260  0.00  0.00    +0.210 HD
ENDBRANCH   9  10
ENDBRANCH   6   9
TORSDOF 3
ENDMDL
