MODEL 1
REMARK VINA RESULT:      -5.3      0.000      0.000
REMARK  Name = min_compound2.pdb
REMARK  2 active torsions:
REMARK  status: ('A' for Active; 'I' for Inactive)
REMARK    1  A    between atoms: _1  and  _9
REMARK    2  A    between atoms: _2  and  _7
REMARK                            x       y       z     vdW  Elec       q    Type
REMARK                         _______ _______ _______ _____ _____    ______ ____
ROOT
ATOM      1  C   UNL     1     -11.397   1.031 -17.350  0.00  0.00    -0.035 A 
ATOM      2  C   UNL     1     -12.287   1.813 -18.271  0.00  0.00    +0.044 C 
ATOM      3  C   UNL     1     -10.931  -0.245 -17.711  0.00  0.00    +0.024 A 
ATOM      4  C   UNL     1     -10.060  -0.916 -16.863  0.00  0.00    +0.111 A 
ATOM      5  N   UNL     1      -9.616  -0.410 -15.696  0.00  0.00    -0.262 NA
ATOM      6  C   UNL     1     -10.063   0.827 -15.363  0.00  0.00    +0.124 A 
ATOM      7  C   UNL     1     -10.955   1.572 -16.130  0.00  0.00    +0.057 A 
ENDROOT
BRANCH   7   8
ATOM      8  C   UNL     1     -11.342   2.900 -15.601  0.00  0.00    +0.243 C 
ATOM      9  N   UNL     1     -10.358   3.837 -15.455  0.00  0.00    -0.325 N 
ATOM     10  H   UNL     1      -9.449   3.739 -15.884  0.00  0.00    +0.145 HD
ATOM     11  H   UNL     1     -10.662   4.769 -15.202  0.00  0.00    +0.145 HD
ATOM     12  O   UNL     1     -12.509   3.171 -15.349  0.00  0.00    -0.270 OA
ENDBRANCH   7   8
TORSDOF 1
ENDMDL
MODEL 2
REMARK VINA RESULT:      -5.1      2.321      3.781
REMARK  Name = min_compound2.pdb
REMARK  2 active torsions:
REMARK  status: ('A' for Active; 'I' for Inactive)
REMARK    1  A    between atoms: _1  and  _9
REMARK    2  A    between atoms: _2  and  _7
REMARK                            x       y       z     vdW  Elec       q    Type
REMARK                         _______ _______ _______ _____ _____    ______ ____
ROOT
ATOM      1  C   UNL     1     -11.552   3.205 -15.841  0.00  0.00    -0.035 A 
ATOM      2  C   UNL     1     -10.302   4.002 -15.616  0.00  0.00    +0.044 C 
ATOM      3  C   UNL     1     -12.816   3.821 -15.796  0.00  0.00    +0.024 A 
ATOM      4  C   UNL     1     -13.949   3.067 -16.070  0.00  0.00    +0.111 A 
ATOM      5  N   UNL     1     -13.916   1.759 -16.392  0.00  0.00    -0.262 NA
ATOM      6  C   UNL     1     -12.691   1.179 -16.444  0.00  0.00    +0.124 A 
ATOM      7  C   UNL     1     -11.497   1.838 -16.164  0.00  0.00    +0.057 A 
ENDROOT
BRANCH   7   8
ATOM      8  C   UNL     1     -10.255   1.039 -16.260  0.00  0.00    +0.243 C 
ATOM      9  N   UNL     1      -9.636   0.971 -17.476  0.00  0.00    -0.325 N 
ATOM     10  H   UNL     1      -9.859   1.601 -18.234  0.00  0.00    +0.145 HD
ATOM     11  H   UNL     1      -8.731   0.517 -17.493  0.00  0.00    +0.145 HD
ATOM     12  O   UNL     1      -9.767   0.497 -15.276  0.00  0.00    -0.270 OA
ENDBRANCH   7   8
TORSDOF 1
ENDMDL
MODEL 3
REMARK VINA RESULT:      -5.0      1.907      2.537
REMARK  Name = min_compound2.pdb
REMARK  2 active torsions:
REMARK  status: ('A' for Active; 'I' for Inactive)
REMARK    1  A    between atoms: _1  and  _9
REMARK    2  A    between atoms: _2  and  _7
REMARK                            x       y       z     vdW  Elec       q    Type
REMARK                         _______ _______ _______ _____ _____    ______ ____
ROOT
ATOM      1  C   UNL     1     -11.035   1.788 -15.926  0.00  0.00    -0.035 A 
ATOM      2  C   UNL     1     -10.896   3.250 -15.621  0.00  0.00    +0.044 C 
ATOM      3  C   UNL     1     -10.006   0.884 -15.605  0.00  0.00    +0.024 A 
ATOM      4  C   UNL     1     -10.191  -0.470 -15.845  0.00  0.00    +0.111 A 
ATOM      5  N   UNL     1     -11.320  -0.988 -16.368  0.00  0.00    -0.262 NA
ATOM      6  C   UNL     1     -12.311  -0.109 -16.662  0.00  0.00    +0.124 A 
ATOM      7  C   UNL     1     -12.217   1.269 -16.483  0.00  0.00    +0.057 A 
ENDROOT
BRANCH   7   8
ATOM      8  C   UNL     1     -13.396   2.074 -16.873  0.00  0.00    +0.243 C 
ATOM      9  N   UNL     1     -13.452   2.537 -18.157  0.00  0.00    -0.325 N 
ATOM     10  H   UNL     1     -12.852   2.182 -18.888  0.00  0.00    +0.145 HD
ATOM     11  H   UNL     1     -14.317   2.985 -18.434  0.00  0.00    +0.145 HD
ATOM     12  O   UNL     1     -14.316   2.277 -16.092  0.00  0.00    -0.270 OA
ENDBRANCH   7   8
TORSDOF 1
ENDMDL
MODEL 4
REMARK VINA RESULT:      -4.8     11.911     12.578
REMARK  Name = min_compound2.pdb
REMARK  2 active torsions:
REMARK  status: ('A' for Active; 'I' for Inactive)
REMARK    1  A    between atoms: _1  and  _9
REMARK    2  A    between atoms: _2  and  _7
REMARK                            x       y       z     vdW  Elec       q    Type
REMARK                         _______ _______ _______ _____ _____    ______ ____
ROOT
ATOM      1  C   UNL     1     -14.415   0.307  -5.460  0.00  0.00    -0.035 A 
ATOM      2  C   UNL     1     -14.241   1.136  -6.698  0.00  0.00    +0.044 C 
ATOM      3  C   UNL     1     -14.499  -1.095  -5.538  0.00  0.00    +0.024 A 
ATOM      4  C   UNL     1     -14.598  -1.836  -4.369  0.00  0.00    +0.111 A 
ATOM      5  N   UNL     1     -14.610  -1.290  -3.138  0.00  0.00    -0.262 NA
ATOM      6  C   UNL     1     -14.516   0.062  -3.073  0.00  0.00    +0.124 A 
ATOM      7  C   UNL     1     -14.438   0.897  -4.184  0.00  0.00    +0.057 A 
ENDROOT
BRANCH   7   8
ATOM      8  C   UNL     1     -14.355   2.351  -3.921  0.00  0.00    +0.243 C 
ATOM      9  N   UNL     1     -15.521   3.064  -3.916  0.00  0.00    -0.325 N 
ATOM     10  H   UNL     1     -16.427   2.620  -3.867  0.00  0.00    +0.145 HD
ATOM     11  H   UNL     1     -15.453   4.030  -3.621  0.00  0.00    +0.145 HD
ATOM     12  O   UNL     1     -13.287   2.894  -3.665  0.00  0.00    -0.270 OA
ENDBRANCH   7   8
TORSDOF 1
ENDMDL
MODEL 5
REMARK VINA RESULT:      -4.8      1.976      3.523
REMARK  Name = min_compound2.pdb
REMARK  2 active torsions:
REMARK  status: ('A' for Active; 'I' for Inactive)
REMARK    1  A    between atoms: _1  and  _9
REMARK    2  A    between atoms: _2  and  _7
REMARK                            x       y       z     vdW  Elec       q    Type
REMARK                         _______ _______ _______ _____ _____    ______ ____
ROOT
ATOM      1  C   UNL     1     -12.345   1.359 -16.360  0.00  0.00    -0.035 A 
ATOM      2  C   UNL     1     -12.885  -0.029 -16.542  0.00  0.00    +0.044 C 
ATOM      3  C   UNL     1     -13.212   2.461 -16.253  0.00  0.00    +0.024 A 
ATOM      4  C   UNL     1     -12.683   3.723 -16.024  0.00  0.00    +0.111 A 
ATOM      5  N   UNL     1     -11.366   3.966 -15.885  0.00  0.00    -0.262 NA
ATOM      6  C   UNL     1     -10.538   2.895 -15.977  0.00  0.00    +0.124 A 
ATOM      7  C   UNL     1     -10.965   1.593 -16.229  0.00  0.00    +0.057 A 
ENDROOT
BRANCH   7   8
ATOM      8  C   UNL     1      -9.916   0.552 -16.309  0.00  0.00    +0.243 C 
ATOM      9  N   UNL     1      -9.261   0.400 -17.499  0.00  0.00    -0.325 N 
ATOM     10  H   UNL     1      -9.305   1.092 -18.234  0.00  0.00    +0.145 HD
ATOM     11  H   UNL     1      -8.473  -0.235 -17.498  0.00  0.00    +0.145 HD
ATOM     12  O   UNL     1      -9.607  -0.119 -15.333  0.00  0.00    -0.270 OA
ENDBRANCH   7   8
TORSDOF 1
ENDMDL
MODEL 6
REMARK VINA RESULT:      -4.8     11.587     12.456
REMARK  Name = min_compound2.pdb
REMARK  2 active torsions:
REMARK  status: ('A' for Active; 'I' for Inactive)
REMARK    1  A    between atoms: _1  and  _9
REMARK    2  A    between atoms: _2  and  _7
REMARK                            x       y       z     vdW  Elec       q    Type
REMARK                         _______ _______ _______ _____ _____    ______ ____
ROOT
ATOM      1  C   UNL     1     -14.102   0.859  -3.973  0.00  0.00    -0.035 A 
ATOM      2  C   UNL     1     -13.776   2.318  -3.849  0.00  0.00    +0.044 C 
ATOM      3  C   UNL     1     -13.972  -0.004  -2.870  0.00  0.00    +0.024 A 
ATOM      4  C   UNL     1     -14.340  -1.336  -3.002  0.00  0.00    +0.111 A 
ATOM      5  N   UNL     1     -14.833  -1.865  -4.138  0.00  0.00    -0.262 NA
ATOM      6  C   UNL     1     -14.965  -1.021  -5.192  0.00  0.00    +0.124 A 
ATOM      7  C   UNL     1     -14.603   0.323  -5.172  0.00  0.00    +0.057 A 
ENDROOT
BRANCH   7   8
ATOM      8  C   UNL     1     -14.808   1.088  -6.423  0.00  0.00    +0.243 C 
ATOM      9  N   UNL     1     -16.011   1.713  -6.595  0.00  0.00    -0.325 N 
ATOM     10  H   UNL     1     -16.662   1.854  -5.836  0.00  0.00    +0.145 HD
ATOM     11  H   UNL     1     -16.087   2.322  -7.400  0.00  0.00    +0.145 HD
ATOM     12  O   UNL     1     -13.917   1.203  -7.254  0.00  0.00    -0.270 OA
ENDBRANCH   7   8
TORSDOF 1
ENDMDL
MODEL 7
REMARK VINA RESULT:      -4.7     12.909     13.466
REMARK  Name = min_compound2.pdb
REMARK  2 active torsions:
REMARK  status: ('A' for Active; 'I' for Inactive)
REMARK    1  A    between atoms: _1  and  _9
REMARK    2  A    between atoms: _2  and  _7
REMARK                            x       y       z     vdW  Elec       q    Type
REMARK                         _______ _______ _______ _____ _____    ______ ____
ROOT
ATOM      1  C   UNL     1     -14.563   1.282  -3.799  0.00  0.00    -0.035 A 
ATOM      2  C   UNL     1     -13.180   1.101  -3.247  0.00  0.00    +0.044 C 
ATOM      3  C   UNL     1     -15.144   2.560  -3.882  0.00  0.00    +0.024 A 
ATOM      4  C   UNL     1     -16.400   2.700  -4.454  0.00  0.00    +0.111 A 
ATOM      5  N   UNL     1     -17.111   1.672  -4.955  0.00  0.00    -0.262 NA
ATOM      6  C   UNL     1     -16.536   0.445  -4.882  0.00  0.00    +0.124 A 
ATOM      7  C   UNL     1     -15.294   0.193  -4.306  0.00  0.00    +0.057 A 
ENDROOT
BRANCH   7   8
ATOM      8  C   UNL     1     -14.832  -1.213  -4.304  0.00  0.00    +0.243 C 
ATOM      9  N   UNL     1     -14.452  -1.758  -5.499  0.00  0.00    -0.325 N 
ATOM     10  H   UNL     1     -14.270  -1.195  -6.318  0.00  0.00    +0.145 HD
ATOM     11  H   UNL     1     -14.033  -2.679  -5.457  0.00  0.00    +0.145 HD
ATOM     12  O   UNL     1     -14.741  -1.854  -3.266  0.00  0.00    -0.270 OA
ENDBRANCH   7   8
TORSDOF 1
ENDMDL
MODEL 8
REMARK VINA RESULT:      -4.7     12.251     13.077
REMARK  Name = min_compound2.pdb
REMARK  2 active torsions:
REMARK  status: ('A' for Active; 'I' for Inactive)
REMARK    1  A    between atoms: _1  and  _9
REMARK    2  A    between atoms: _2  and  _7
REMARK                            x       y       z     vdW  Elec       q    Type
REMARK                         _______ _______ _______ _____ _____    ______ ____
ROOT
ATOM      1  C   UNL     1     -14.081   0.645  -4.424  0.00  0.00    -0.035 A 
ATOM      2  C   UNL     1     -13.664   1.631  -3.373  0.00  0.00    +0.044 C 
ATOM      3  C   UNL     1     -13.931   0.944  -5.790  0.00  0.00    +0.024 A 
ATOM      4  C   UNL     1     -14.270  -0.013  -6.737  0.00  0.00    +0.111 A 
ATOM      5  N   UNL     1     -14.734  -1.239  -6.425  0.00  0.00    -0.262 NA
ATOM      6  C   UNL     1     -14.863  -1.521  -5.104  0.00  0.00    +0.124 A 
ATOM      7  C   UNL     1     -14.575  -0.625  -4.078  0.00  0.00    +0.057 A 
ENDROOT
BRANCH   7   8
ATOM      8  C   UNL     1     -14.789  -1.104  -2.695  0.00  0.00    +0.243 C 
ATOM      9  N   UNL     1     -16.057  -1.039  -2.189  0.00  0.00    -0.325 N 
ATOM     10  H   UNL     1     -16.867  -0.890  -2.774  0.00  0.00    +0.145 HD
ATOM     11  H   UNL     1     -16.202  -1.476  -1.287  0.00  0.00    +0.145 HD
ATOM     12  O   UNL     1     -13.876  -1.589  -2.039  0.00  0.00    -0.270 OA
ENDBRANCH   7   8
TORSDOF 1
ENDMDL
MODEL 9
REMARK VINA RESULT:      -4.6     11.514     12.378
REMARK  Name = min_compound2.pdb
REMARK  2 active torsions:
REMARK  status: ('A' for Active; 'I' for Inactive)
REMARK    1  A    between atoms: _1  and  _9
REMARK    2  A    between atoms: _2  and  _7
REMARK                            x       y       z     vdW  Elec       q    Type
REMARK                         _______ _______ _______ _____ _____    ______ ____
ROOT
ATOM      1  C   UNL     1     -14.242   1.159  -4.651  0.00  0.00    -0.035 A 
ATOM      2  C   UNL     1     -13.590   1.300  -3.307  0.00  0.00    +0.044 C 
ATOM      3  C   UNL     1     -13.748   0.244  -5.598  0.00  0.00    +0.024 A 
ATOM      4  C   UNL     1     -14.410   0.094  -6.809  0.00  0.00    +0.111 A 
ATOM      5  N   UNL     1     -15.525   0.775  -7.139  0.00  0.00    -0.262 NA
ATOM      6  C   UNL     1     -16.000   1.645  -6.212  0.00  0.00    +0.124 A 
ATOM      7  C   UNL     1     -15.397   1.888  -4.981  0.00  0.00    +0.057 A 
ENDROOT
BRANCH   7   8
ATOM      8  C   UNL     1     -16.052   2.883  -4.103  0.00  0.00    +0.243 C 
ATOM      9  N   UNL     1     -17.274   2.564  -3.580  0.00  0.00    -0.325 N 
ATOM     10  H   UNL     1     -17.636   1.621  -3.588  0.00  0.00    +0.145 HD
ATOM     11  H   UNL     1     -17.649   3.206  -2.893  0.00  0.00    +0.145 HD
ATOM     12  O   UNL     1     -15.501   3.936  -3.809  0.00  0.00    -0.270 OA
ENDBRANCH   7   8
TORSDOF 1
ENDMDL
