MODEL 1
REMARK VINA RESULT:      -7.3      0.000      0.000
REMARK  Name = min_compound963.pdb
REMARK  3 active torsions:
REMARK  status: ('A' for Active; 'I' for Inactive)
REMARK    1  A    between atoms: _7  and  _9
REMARK    2  A    between atoms: _11  and  _18
REMARK    3  A    between atoms: _15  and  _16
REMARK                            x       y       z     vdW  Elec       q    Type
REMARK                         _______ _______ _______ _____ _____    ______ ____
ROOT
ATOM      1  C   UNL     1     -14.930   1.009  -6.548  0.00  0.00    +0.250 C 
ATOM      2  N   UNL     1     -16.221   1.416  -6.815  0.00  0.00    -0.281 N 
ATOM      3  H   UNL     1     -16.923   1.208  -6.117  0.00  0.00    +0.155 HD
ATOM      4  O   UNL     1     -13.973   1.190  -7.295  0.00  0.00    -0.270 OA
ENDROOT
BRANCH   1  10
ATOM      5 CL   UNL     1     -14.041  -2.281  -1.553  0.00  0.00    -0.083 Cl
ATOM      6  C   UNL     1     -14.282  -1.312  -2.953  0.00  0.00    +0.042 A 
ATOM      7  C   UNL     1     -14.017   0.053  -2.906  0.00  0.00    +0.040 A 
ATOM      8  C   UNL     1     -14.209   0.856  -4.042  0.00  0.00    +0.054 A 
ATOM      9 CL   UNL     1     -13.836   2.533  -3.821  0.00  0.00    -0.083 Cl
ATOM     10  C   UNL     1     -14.672   0.293  -5.246  0.00  0.00    +0.055 A 
ATOM     11  C   UNL     1     -14.931  -1.096  -5.259  0.00  0.00    +0.016 A 
ATOM     12  C   UNL     1     -14.739  -1.893  -4.127  0.00  0.00    +0.021 A 
ENDBRANCH   1  10
BRANCH   2  13
ATOM     13  C   UNL     1     -16.701   2.097  -7.956  0.00  0.00    +0.035 A 
ATOM     14  C   UNL     1     -18.079   2.018  -8.206  0.00  0.00    +0.023 A 
ATOM     15  C   UNL     1     -18.645   2.659  -9.310  0.00  0.00    +0.003 A 
ATOM     16  C   UNL     1     -17.837   3.388 -10.180  0.00  0.00    +0.017 A 
ATOM     17  C   UNL     1     -16.465   3.473  -9.942  0.00  0.00    +0.026 A 
ATOM     18  C   UNL     1     -15.899   2.830  -8.834  0.00  0.00    +0.040 A 
BRANCH  17  19
ATOM     19  C   UNL     1     -15.634   4.222 -10.836  0.00  0.00    -0.070 C 
ATOM     20  C   UNL     1     -14.935   4.850 -11.584  0.00  0.00    +0.009 C 
ENDBRANCH  17  19
ENDBRANCH   2  13
TORSDOF 3
ENDMDL
MODEL 2
REMARK VINA RESULT:      -7.2      8.047     10.342
REMARK  Name = min_compound963.pdb
REMARK  3 active torsions:
REMARK  status: ('A' for Active; 'I' for Inactive)
REMARK    1  A    between atoms: _7  and  _9
REMARK    2  A    between atoms: _11  and  _18
REMARK    3  A    between atoms: _15  and  _16
REMARK                            x       y       z     vdW  Elec       q    Type
REMARK                         _______ _______ _______ _____ _____    ______ ____
ROOT
ATOM      1  C   UNL     1     -14.878   3.280 -15.392  0.00  0.00    +0.250 C 
ATOM      2  N   UNL     1     -13.578   3.580 -15.040  0.00  0.00    -0.281 N 
ATOM      3  H   UNL     1     -13.443   4.121 -14.195  0.00  0.00    +0.155 HD
ATOM      4  O   UNL     1     -15.200   2.634 -16.385  0.00  0.00    -0.270 OA
ENDROOT
BRANCH   1  10
ATOM      5 CL   UNL     1     -19.382   4.803 -11.656  0.00  0.00    -0.083 Cl
ATOM      6  C   UNL     1     -18.097   4.409 -12.729  0.00  0.00    +0.042 A 
ATOM      7  C   UNL     1     -17.462   5.415 -13.449  0.00  0.00    +0.040 A 
ATOM      8  C   UNL     1     -16.410   5.108 -14.328  0.00  0.00    +0.054 A 
ATOM      9 CL   UNL     1     -15.725   6.469 -15.150  0.00  0.00    -0.083 Cl
ATOM     10  C   UNL     1     -15.984   3.777 -14.495  0.00  0.00    +0.055 A 
ATOM     11  C   UNL     1     -16.651   2.780 -13.748  0.00  0.00    +0.016 A 
ATOM     12  C   UNL     1     -17.697   3.089 -12.873  0.00  0.00    +0.021 A 
ENDBRANCH   1  10
BRANCH   2  13
ATOM     13  C   UNL     1     -12.389   3.227 -15.716  0.00  0.00    +0.035 A 
ATOM     14  C   UNL     1     -11.784   4.225 -16.495  0.00  0.00    +0.023 A 
ATOM     15  C   UNL     1     -10.605   3.969 -17.199  0.00  0.00    +0.003 A 
ATOM     16  C   UNL     1     -10.018   2.708 -17.133  0.00  0.00    +0.017 A 
ATOM     17  C   UNL     1     -10.610   1.707 -16.363  0.00  0.00    +0.026 A 
ATOM     18  C   UNL     1     -11.792   1.966 -15.657  0.00  0.00    +0.040 A 
BRANCH  17  19
ATOM     19  C   UNL     1     -10.006   0.410 -16.295  0.00  0.00    -0.070 C 
ATOM     20  C   UNL     1      -9.501  -0.678 -16.238  0.00  0.00    +0.009 C 
ENDBRANCH  17  19
ENDBRANCH   2  13
TORSDOF 3
ENDMDL
MODEL 3
REMARK VINA RESULT:      -7.1      2.201      2.904
REMARK  Name = min_compound963.pdb
REMARK  3 active torsions:
REMARK  status: ('A' for Active; 'I' for Inactive)
REMARK    1  A    between atoms: _7  and  _9
REMARK    2  A    between atoms: _11  and  _18
REMARK    3  A    between atoms: _15  and  _16
REMARK                            x       y       z     vdW  Elec       q    Type
REMARK                         _______ _______ _______ _____ _____    ______ ____
ROOT
ATOM      1  C   UNL     1     -16.588   1.530  -8.028  0.00  0.00    +0.250 C 
ATOM      2  N   UNL     1     -16.615   2.721  -8.726  0.00  0.00    -0.281 N 
ATOM      3  H   UNL     1     -16.110   3.500  -8.325  0.00  0.00    +0.155 HD
ATOM      4  O   UNL     1     -17.152   0.499  -8.386  0.00  0.00    -0.270 OA
ENDROOT
BRANCH   1  10
ATOM      5 CL   UNL     1     -13.152   1.067  -3.075  0.00  0.00    -0.083 Cl
ATOM      6  C   UNL     1     -14.154   1.223  -4.463  0.00  0.00    +0.042 A 
ATOM      7  C   UNL     1     -15.310   1.995  -4.401  0.00  0.00    +0.040 A 
ATOM      8  C   UNL     1     -16.138   2.131  -5.527  0.00  0.00    +0.054 A 
ATOM      9 CL   UNL     1     -17.536   3.125  -5.288  0.00  0.00    -0.083 Cl
ATOM     10  C   UNL     1     -15.813   1.488  -6.736  0.00  0.00    +0.055 A 
ATOM     11  C   UNL     1     -14.632   0.711  -6.764  0.00  0.00    +0.016 A 
ATOM     12  C   UNL     1     -13.810   0.578  -5.642  0.00  0.00    +0.021 A 
ENDBRANCH   1  10
BRANCH   2  13
ATOM     13  C   UNL     1     -17.268   3.000  -9.947  0.00  0.00    +0.035 A 
ATOM     14  C   UNL     1     -18.534   3.598  -9.865  0.00  0.00    +0.023 A 
ATOM     15  C   UNL     1     -19.255   3.911 -11.019  0.00  0.00    +0.003 A 
ATOM     16  C   UNL     1     -18.717   3.629 -12.272  0.00  0.00    +0.017 A 
ATOM     17  C   UNL     1     -17.457   3.034 -12.367  0.00  0.00    +0.026 A 
ATOM     18  C   UNL     1     -16.736   2.721 -11.208  0.00  0.00    +0.040 A 
BRANCH  17  19
ATOM     19  C   UNL     1     -16.903   2.744 -13.655  0.00  0.00    -0.070 C 
ATOM     20  C   UNL     1     -16.437   2.500 -14.734  0.00  0.00    +0.009 C 
ENDBRANCH  17  19
ENDBRANCH   2  13
TORSDOF 3
ENDMDL
MODEL 4
REMARK VINA RESULT:      -7.1      7.801     10.167
REMARK  Name = min_compound963.pdb
REMARK  3 active torsions:
REMARK  status: ('A' for Active; 'I' for Inactive)
REMARK    1  A    between atoms: _7  and  _9
REMARK    2  A    between atoms: _11  and  _18
REMARK    3  A    between atoms: _15  and  _16
REMARK                            x       y       z     vdW  Elec       q    Type
REMARK                         _______ _______ _______ _____ _____    ______ ____
ROOT
ATOM      1  C   UNL     1     -13.258   3.780 -15.826  0.00  0.00    +0.250 C 
ATOM      2  N   UNL     1     -13.999   3.547 -14.685  0.00  0.00    -0.281 N 
ATOM      3  H   UNL     1     -13.859   2.660 -14.218  0.00  0.00    +0.155 HD
ATOM      4  O   UNL     1     -13.318   4.805 -16.499  0.00  0.00    -0.270 OA
ENDROOT
BRANCH   1  10
ATOM      5 CL   UNL     1      -9.833  -0.851 -17.666  0.00  0.00    -0.083 Cl
ATOM      6  C   UNL     1     -10.774   0.490 -17.142  0.00  0.00    +0.042 A 
ATOM      7  C   UNL     1     -10.162   1.717 -16.906  0.00  0.00    +0.040 A 
ATOM      8  C   UNL     1     -10.918   2.820 -16.478  0.00  0.00    +0.054 A 
ATOM      9 CL   UNL     1     -10.011   4.274 -16.229  0.00  0.00    -0.083 Cl
ATOM     10  C   UNL     1     -12.306   2.702 -16.280  0.00  0.00    +0.055 A 
ATOM     11  C   UNL     1     -12.896   1.441 -16.528  0.00  0.00    +0.016 A 
ATOM     12  C   UNL     1     -12.141   0.345 -16.954  0.00  0.00    +0.021 A 
ENDBRANCH   1  10
BRANCH   2  13
ATOM     13  C   UNL     1     -14.945   4.399 -14.072  0.00  0.00    +0.035 A 
ATOM     14  C   UNL     1     -15.747   5.172 -14.926  0.00  0.00    +0.023 A 
ATOM     15  C   UNL     1     -16.709   6.043 -14.411  0.00  0.00    +0.003 A 
ATOM     16  C   UNL     1     -16.882   6.151 -13.034  0.00  0.00    +0.017 A 
ATOM     17  C   UNL     1     -16.091   5.387 -12.174  0.00  0.00    +0.026 A 
ATOM     18  C   UNL     1     -15.126   4.515 -12.692  0.00  0.00    +0.040 A 
BRANCH  17  19
ATOM     19  C   UNL     1     -16.269   5.499 -10.758  0.00  0.00    -0.070 C 
ATOM     20  C   UNL     1     -16.420   5.590  -9.570  0.00  0.00    +0.009 C 
ENDBRANCH  17  19
ENDBRANCH   2  13
TORSDOF 3
ENDMDL
MODEL 5
REMARK VINA RESULT:      -7.0     10.704     11.252
REMARK  Name = min_compound963.pdb
REMARK  3 active torsions:
REMARK  status: ('A' for Active; 'I' for Inactive)
REMARK    1  A    between atoms: _7  and  _9
REMARK    2  A    between atoms: _11  and  _18
REMARK    3  A    between atoms: _15  and  _16
REMARK                            x       y       z     vdW  Elec       q    Type
REMARK                         _______ _______ _______ _____ _____    ______ ____
ROOT
ATOM      1  C   UNL     1     -13.381   3.689 -16.478  0.00  0.00    +0.250 C 
ATOM      2  N   UNL     1     -13.097   4.730 -17.339  0.00  0.00    -0.281 N 
ATOM      3  H   UNL     1     -12.219   4.685 -17.842  0.00  0.00    +0.155 HD
ATOM      4  O   UNL     1     -14.402   3.603 -15.802  0.00  0.00    -0.270 OA
ENDROOT
BRANCH   1  10
ATOM      5 CL   UNL     1      -9.677  -1.078 -16.139  0.00  0.00    -0.083 Cl
ATOM      6  C   UNL     1     -10.700   0.301 -16.224  0.00  0.00    +0.042 A 
ATOM      7  C   UNL     1     -10.196   1.559 -15.905  0.00  0.00    +0.040 A 
ATOM      8  C   UNL     1     -11.020   2.694 -15.970  0.00  0.00    +0.054 A 
ATOM      9 CL   UNL     1     -10.245   4.183 -15.544  0.00  0.00    -0.083 Cl
ATOM     10  C   UNL     1     -12.368   2.578 -16.358  0.00  0.00    +0.055 A 
ATOM     11  C   UNL     1     -12.847   1.287 -16.675  0.00  0.00    +0.016 A 
ATOM     12  C   UNL     1     -12.025   0.159 -16.609  0.00  0.00    +0.021 A 
ENDBRANCH   1  10
BRANCH   2  13
ATOM     13  C   UNL     1     -13.883   5.870 -17.616  0.00  0.00    +0.035 A 
ATOM     14  C   UNL     1     -14.253   6.074 -18.954  0.00  0.00    +0.023 A 
ATOM     15  C   UNL     1     -15.030   7.173 -19.324  0.00  0.00    +0.003 A 
ATOM     16  C   UNL     1     -15.447   8.085 -18.358  0.00  0.00    +0.017 A 
ATOM     17  C   UNL     1     -15.086   7.894 -17.023  0.00  0.00    +0.026 A 
ATOM     18  C   UNL     1     -14.307   6.790 -16.655  0.00  0.00    +0.040 A 
BRANCH  17  19
ATOM     19  C   UNL     1     -15.515   8.831 -16.030  0.00  0.00    -0.070 C 
ATOM     20  C   UNL     1     -15.874   9.617 -15.195  0.00  0.00    +0.009 C 
ENDBRANCH  17  19
ENDBRANCH   2  13
TORSDOF 3
ENDMDL
MODEL 6
REMARK VINA RESULT:      -6.9      9.419     10.066
REMARK  Name = min_compound963.pdb
REMARK  3 active torsions:
REMARK  status: ('A' for Active; 'I' for Inactive)
REMARK    1  A    between atoms: _7  and  _9
REMARK    2  A    between atoms: _11  and  _18
REMARK    3  A    between atoms: _15  and  _16
REMARK                            x       y       z     vdW  Elec       q    Type
REMARK                         _______ _______ _______ _____ _____    ______ ____
ROOT
ATOM      1  C   UNL     1     -13.734   2.976 -16.294  0.00  0.00    +0.250 C 
ATOM      2  N   UNL     1     -14.251   3.411 -15.091  0.00  0.00    -0.281 N 
ATOM      3  H   UNL     1     -13.794   3.085 -14.249  0.00  0.00    +0.155 HD
ATOM      4  O   UNL     1     -14.179   3.285 -17.396  0.00  0.00    -0.270 OA
ENDROOT
BRANCH   1  10
ATOM      5 CL   UNL     1      -9.246  -1.075 -16.279  0.00  0.00    -0.083 Cl
ATOM      6  C   UNL     1     -10.496   0.105 -16.272  0.00  0.00    +0.042 A 
ATOM      7  C   UNL     1     -10.202   1.425 -15.942  0.00  0.00    +0.040 A 
ATOM      8  C   UNL     1     -11.213   2.400 -15.933  0.00  0.00    +0.054 A 
ATOM      9 CL   UNL     1     -10.686   3.992 -15.502  0.00  0.00    -0.083 Cl
ATOM     10  C   UNL     1     -12.539   2.058 -16.257  0.00  0.00    +0.055 A 
ATOM     11  C   UNL     1     -12.803   0.709 -16.587  0.00  0.00    +0.016 A 
ATOM     12  C   UNL     1     -11.795  -0.259 -16.595  0.00  0.00    +0.021 A 
ENDBRANCH   1  10
BRANCH   2  13
ATOM     13  C   UNL     1     -15.355   4.267 -14.875  0.00  0.00    +0.035 A 
ATOM     14  C   UNL     1     -16.596   3.653 -14.650  0.00  0.00    +0.023 A 
ATOM     15  C   UNL     1     -17.743   4.417 -14.427  0.00  0.00    +0.003 A 
ATOM     16  C   UNL     1     -17.662   5.807 -14.426  0.00  0.00    +0.017 A 
ATOM     17  C   UNL     1     -16.433   6.429 -14.649  0.00  0.00    +0.026 A 
ATOM     18  C   UNL     1     -15.284   5.661 -14.872  0.00  0.00    +0.040 A 
BRANCH  17  19
ATOM     19  C   UNL     1     -16.350   7.859 -14.648  0.00  0.00    -0.070 C 
ATOM     20  C   UNL     1     -16.280   9.058 -14.645  0.00  0.00    +0.009 C 
ENDBRANCH  17  19
ENDBRANCH   2  13
TORSDOF 3
ENDMDL
MODEL 7
REMARK VINA RESULT:      -6.8     10.470     11.032
REMARK  Name = min_compound963.pdb
REMARK  3 active torsions:
REMARK  status: ('A' for Active; 'I' for Inactive)
REMARK    1  A    between atoms: _7  and  _9
REMARK    2  A    between atoms: _11  and  _18
REMARK    3  A    between atoms: _15  and  _16
REMARK                            x       y       z     vdW  Elec       q    Type
REMARK                         _______ _______ _______ _____ _____    ______ ____
ROOT
ATOM      1  C   UNL     1     -13.417   3.785 -15.925  0.00  0.00    +0.250 C 
ATOM      2  N   UNL     1     -13.631   4.626 -16.997  0.00  0.00    -0.281 N 
ATOM      3  H   UNL     1     -13.118   4.428 -17.847  0.00  0.00    +0.155 HD
ATOM      4  O   UNL     1     -13.965   3.896 -14.831  0.00  0.00    -0.270 OA
ENDROOT
BRANCH   1  10
ATOM      5 CL   UNL     1      -9.903  -1.065 -16.758  0.00  0.00    -0.083 Cl
ATOM      6  C   UNL     1     -10.870   0.336 -16.512  0.00  0.00    +0.042 A 
ATOM      7  C   UNL     1     -10.269   1.539 -16.154  0.00  0.00    +0.040 A 
ATOM      8  C   UNL     1     -11.046   2.691 -15.950  0.00  0.00    +0.054 A 
ATOM      9 CL   UNL     1     -10.150   4.106 -15.509  0.00  0.00    -0.083 Cl
ATOM     10  C   UNL     1     -12.444   2.647 -16.105  0.00  0.00    +0.055 A 
ATOM     11  C   UNL     1     -13.021   1.410 -16.469  0.00  0.00    +0.016 A 
ATOM     12  C   UNL     1     -12.246   0.265 -16.671  0.00  0.00    +0.021 A 
ENDBRANCH   1  10
BRANCH   2  13
ATOM     13  C   UNL     1     -14.487   5.748 -17.067  0.00  0.00    +0.035 A 
ATOM     14  C   UNL     1     -13.874   7.004 -17.189  0.00  0.00    +0.023 A 
ATOM     15  C   UNL     1     -14.638   8.170 -17.265  0.00  0.00    +0.003 A 
ATOM     16  C   UNL     1     -16.028   8.094 -17.221  0.00  0.00    +0.017 A 
ATOM     17  C   UNL     1     -16.650   6.850 -17.100  0.00  0.00    +0.026 A 
ATOM     18  C   UNL     1     -15.881   5.682 -17.024  0.00  0.00    +0.040 A 
BRANCH  17  19
ATOM     19  C   UNL     1     -18.079   6.770 -17.054  0.00  0.00    -0.070 C 
ATOM     20  C   UNL     1     -19.277   6.705 -17.018  0.00  0.00    +0.009 C 
ENDBRANCH  17  19
ENDBRANCH   2  13
TORSDOF 3
ENDMDL
MODEL 8
REMARK VINA RESULT:      -6.6      9.274     10.132
REMARK  Name = min_compound963.pdb
REMARK  3 active torsions:
REMARK  status: ('A' for Active; 'I' for Inactive)
REMARK    1  A    between atoms: _7  and  _9
REMARK    2  A    between atoms: _11  and  _18
REMARK    3  A    between atoms: _15  and  _16
REMARK                            x       y       z     vdW  Elec       q    Type
REMARK                         _______ _______ _______ _____ _____    ______ ____
ROOT
ATOM      1  C   UNL     1     -13.813   2.852 -16.338  0.00  0.00    +0.250 C 
ATOM      2  N   UNL     1     -14.311   3.333 -15.143  0.00  0.00    -0.281 N 
ATOM      3  H   UNL     1     -13.815   3.072 -14.301  0.00  0.00    +0.155 HD
ATOM      4  O   UNL     1     -14.304   3.082 -17.440  0.00  0.00    -0.270 OA
ENDROOT
BRANCH   1  10
ATOM      5 CL   UNL     1      -9.160  -1.008 -16.280  0.00  0.00    -0.083 Cl
ATOM      6  C   UNL     1     -10.459   0.119 -16.285  0.00  0.00    +0.042 A 
ATOM      7  C   UNL     1     -10.221   1.451 -15.961  0.00  0.00    +0.040 A 
ATOM      8  C   UNL     1     -11.272   2.383 -15.961  0.00  0.00    +0.054 A 
ATOM      9 CL   UNL     1     -10.815   3.998 -15.536  0.00  0.00    -0.083 Cl
ATOM     10  C   UNL     1     -12.581   1.985 -16.290  0.00  0.00    +0.055 A 
ATOM     11  C   UNL     1     -12.787   0.624 -16.614  0.00  0.00    +0.016 A 
ATOM     12  C   UNL     1     -11.739  -0.301 -16.613  0.00  0.00    +0.021 A 
ENDBRANCH   1  10
BRANCH   2  13
ATOM     13  C   UNL     1     -15.441   4.155 -14.938  0.00  0.00    +0.035 A 
ATOM     14  C   UNL     1     -15.292   5.519 -15.230  0.00  0.00    +0.023 A 
ATOM     15  C   UNL     1     -16.354   6.409 -15.058  0.00  0.00    +0.003 A 
ATOM     16  C   UNL     1     -17.581   5.945 -14.592  0.00  0.00    +0.017 A 
ATOM     17  C   UNL     1     -17.742   4.590 -14.298  0.00  0.00    +0.026 A 
ATOM     18  C   UNL     1     -16.675   3.699 -14.471  0.00  0.00    +0.040 A 
BRANCH  17  19
ATOM     19  C   UNL     1     -19.003   4.112 -13.818  0.00  0.00    -0.070 C 
ATOM     20  C   UNL     1     -20.060   3.709 -13.415  0.00  0.00    +0.009 C 
ENDBRANCH  17  19
ENDBRANCH   2  13
TORSDOF 3
ENDMDL
MODEL 9
REMARK VINA RESULT:      -6.6      1.713      2.014
REMARK  Name = min_compound963.pdb
REMARK  3 active torsions:
REMARK  status: ('A' for Active; 'I' for Inactive)
REMARK    1  A    between atoms: _7  and  _9
REMARK    2  A    between atoms: _11  and  _18
REMARK    3  A    between atoms: _15  and  _16
REMARK                            x       y       z     vdW  Elec       q    Type
REMARK                         _______ _______ _______ _____ _____    ______ ____
ROOT
ATOM      1  C   UNL     1     -16.379   1.742  -5.808  0.00  0.00    +0.250 C 
ATOM      2  N   UNL     1     -16.388   1.383  -7.141  0.00  0.00    -0.281 N 
ATOM      3  H   UNL     1     -16.057   0.455  -7.369  0.00  0.00    +0.155 HD
ATOM      4  O   UNL     1     -16.749   2.831  -5.377  0.00  0.00    -0.270 OA
ENDROOT
BRANCH   1  10
ATOM      5 CL   UNL     1     -13.996  -2.013  -1.711  0.00  0.00    -0.083 Cl
ATOM      6  C   UNL     1     -14.704  -0.971  -2.882  0.00  0.00    +0.042 A 
ATOM      7  C   UNL     1     -15.882  -1.345  -3.521  0.00  0.00    +0.040 A 
ATOM      8  C   UNL     1     -16.471  -0.504  -4.479  0.00  0.00    +0.054 A 
ATOM      9 CL   UNL     1     -17.933  -1.111  -5.182  0.00  0.00    -0.083 Cl
ATOM     10  C   UNL     1     -15.879   0.729  -4.809  0.00  0.00    +0.055 A 
ATOM     11  C   UNL     1     -14.683   1.078  -4.142  0.00  0.00    +0.016 A 
ATOM     12  C   UNL     1     -14.099   0.239  -3.188  0.00  0.00    +0.021 A 
ENDBRANCH   1  10
BRANCH   2  13
ATOM     13  C   UNL     1     -16.807   2.155  -8.248  0.00  0.00    +0.035 A 
ATOM     14  C   UNL     1     -18.184   2.183  -8.514  0.00  0.00    +0.023 A 
ATOM     15  C   UNL     1     -18.691   2.918  -9.588  0.00  0.00    +0.003 A 
ATOM     16  C   UNL     1     -17.825   3.635 -10.409  0.00  0.00    +0.017 A 
ATOM     17  C   UNL     1     -16.453   3.615 -10.154  0.00  0.00    +0.026 A 
ATOM     18  C   UNL     1     -15.947   2.877  -9.077  0.00  0.00    +0.040 A 
BRANCH  17  19
ATOM     19  C   UNL     1     -15.563   4.353 -10.998  0.00  0.00    -0.070 C 
ATOM     20  C   UNL     1     -14.814   4.972 -11.705  0.00  0.00    +0.009 C 
ENDBRANCH  17  19
ENDBRANCH   2  13
TORSDOF 3
ENDMDL
