MODEL 1
REMARK VINA RESULT:      -6.1      0.000      0.000
REMARK  Name = min_compound940.pdb
REMARK  6 active torsions:
REMARK  status: ('A' for Active; 'I' for Inactive)
REMARK    1  A    between atoms: _3  and  _17
REMARK    2  A    between atoms: _5  and  _16
REMARK    3  A    between atoms: _8  and  _18
REMARK    4  A    between atoms: _10  and  _19
REMARK    5  A    between atoms: _11  and  _12
REMARK    6  A    between atoms: _15  and  _16
REMARK                            x       y       z     vdW  Elec       q    Type
REMARK                         _______ _______ _______ _____ _____    ______ ____
ROOT
ATOM      1  N   UNL     1     -15.431   5.192 -14.955  0.00  0.00    -0.251 NA
ATOM      2  C   UNL     1     -14.676   4.184 -14.600  0.00  0.00    +0.183 C 
ATOM      3  N   UNL     1     -13.678   3.568 -15.263  0.00  0.00    -0.290 N 
ATOM      4  H   UNL     1     -13.166   2.813 -14.893  0.00  0.00    +0.154 HD
ATOM      5  C   UNL     1     -13.453   4.093 -16.488  0.00  0.00    +0.131 A 
ATOM      6  N   UNL     1     -12.592   3.729 -17.488  0.00  0.00    -0.309 N 
ATOM      7  C   UNL     1     -12.853   4.575 -18.539  0.00  0.00    +0.201 A 
ATOM      8  N   UNL     1     -13.809   5.450 -18.270  0.00  0.00    -0.235 NA
ATOM      9  C   UNL     1     -14.156   5.158 -16.980  0.00  0.00    +0.120 A 
ATOM     10  C   UNL     1     -15.168   5.744 -16.183  0.00  0.00    +0.224 C 
ENDROOT
BRANCH   6  11
ATOM     11  C   UNL     1     -11.722   2.576 -17.436  0.00  0.00    +0.144 C 
ATOM     12  C   UNL     1     -10.512   2.534 -16.478  0.00  0.00    +0.174 C 
ATOM     13  C   UNL     1     -10.216   1.013 -16.372  0.00  0.00    +0.173 C 
ATOM     14  C   UNL     1     -11.581   0.401 -16.530  0.00  0.00    -0.016 C 
ATOM     15  C   UNL     1     -12.426   1.285 -17.085  0.00  0.00    +0.004 C 
BRANCH  12  16
ATOM     16  O   UNL     1     -10.775   3.041 -15.155  0.00  0.00    -0.387 OA
ATOM     17  H   UNL     1     -10.824   4.013 -15.270  0.00  0.00    +0.210 HD
ENDBRANCH  12  16
BRANCH  13  18
ATOM     18  O   UNL     1      -9.633   0.732 -15.101  0.00  0.00    -0.385 OA
ATOM     19  H   UNL     1      -8.961   0.033 -15.264  0.00  0.00    +0.210 HD
ENDBRANCH  13  18
BRANCH  14  20
ATOM     20  C   UNL     1     -11.883  -1.015 -16.210  0.00  0.00    +0.189 C 
BRANCH  20  21
ATOM     21  O   UNL     1     -13.296  -1.175 -16.135  0.00  0.00    -0.391 OA
ATOM     22  H   UNL     1     -13.442  -2.085 -15.821  0.00  0.00    +0.210 HD
ENDBRANCH  20  21
ENDBRANCH  14  20
ENDBRANCH   6  11
BRANCH  10  23
ATOM     23  N   UNL     1     -16.123   6.659 -16.694  0.00  0.00    -0.304 NA
ATOM     24  H   UNL     1     -16.571   7.089 -15.899  0.00  0.00    +0.121 HD
ATOM     25  H   UNL     1     -16.760   6.142 -17.289  0.00  0.00    +0.121 HD
ENDBRANCH  10  23
TORSDOF 6
ENDMDL
MODEL 2
REMARK VINA RESULT:      -6.0      8.168     10.115
REMARK  Name = min_compound940.pdb
REMARK  6 active torsions:
REMARK  status: ('A' for Active; 'I' for Inactive)
REMARK    1  A    between atoms: _3  and  _17
REMARK    2  A    between atoms: _5  and  _16
REMARK    3  A    between atoms: _8  and  _18
REMARK    4  A    between atoms: _10  and  _19
REMARK    5  A    between atoms: _11  and  _12
REMARK    6  A    between atoms: _15  and  _16
REMARK                            x       y       z     vdW  Elec       q    Type
REMARK                         _______ _______ _______ _____ _____    ______ ____
ROOT
ATOM      1  N   UNL     1     -16.222   5.142 -10.299  0.00  0.00    -0.251 NA
ATOM      2  C   UNL     1     -15.961   3.875 -10.102  0.00  0.00    +0.183 C 
ATOM      3  N   UNL     1     -16.222   3.088  -9.041  0.00  0.00    -0.290 N 
ATOM      4  H   UNL     1     -15.983   2.134  -9.000  0.00  0.00    +0.154 HD
ATOM      5  C   UNL     1     -16.847   3.742  -8.036  0.00  0.00    +0.131 A 
ATOM      6  N   UNL     1     -17.227   3.336  -6.786  0.00  0.00    -0.309 N 
ATOM      7  C   UNL     1     -17.751   4.447  -6.169  0.00  0.00    +0.201 A 
ATOM      8  N   UNL     1     -17.736   5.521  -6.944  0.00  0.00    -0.235 NA
ATOM      9  C   UNL     1     -17.197   5.063  -8.114  0.00  0.00    +0.120 A 
ATOM     10  C   UNL     1     -16.893   5.788  -9.291  0.00  0.00    +0.224 C 
ENDROOT
BRANCH   6  11
ATOM     11  C   UNL     1     -16.957   2.028  -6.235  0.00  0.00    +0.144 C 
ATOM     12  C   UNL     1     -17.698   0.777  -6.753  0.00  0.00    +0.174 C 
ATOM     13  C   UNL     1     -16.767  -0.381  -6.301  0.00  0.00    +0.173 C 
ATOM     14  C   UNL     1     -15.405   0.253  -6.353  0.00  0.00    -0.016 C 
ATOM     15  C   UNL     1     -15.515   1.591  -6.357  0.00  0.00    +0.004 C 
BRANCH  12  16
ATOM     16  O   UNL     1     -17.842   0.714  -8.186  0.00  0.00    -0.387 OA
ATOM     17  H   UNL     1     -18.155   1.607  -8.441  0.00  0.00    +0.210 HD
ENDBRANCH  12  16
BRANCH  13  18
ATOM     18  O   UNL     1     -16.899  -1.475  -7.207  0.00  0.00    -0.385 OA
ATOM     19  H   UNL     1     -16.172  -2.097  -6.982  0.00  0.00    +0.210 HD
ENDBRANCH  13  18
BRANCH  14  20
ATOM     20  C   UNL     1     -14.142  -0.521  -6.296  0.00  0.00    +0.189 C 
BRANCH  20  21
ATOM     21  O   UNL     1     -14.456  -1.899  -6.127  0.00  0.00    -0.391 OA
ATOM     22  H   UNL     1     -15.116  -1.934  -5.412  0.00  0.00    +0.210 HD
ENDBRANCH  20  21
ENDBRANCH  14  20
ENDBRANCH   6  11
BRANCH  10  23
ATOM     23  N   UNL     1     -16.963   7.202  -9.368  0.00  0.00    -0.304 NA
ATOM     24  H   UNL     1     -17.471   7.514  -8.555  0.00  0.00    +0.121 HD
ATOM     25  H   UNL     1     -17.411   7.442 -10.245  0.00  0.00    +0.121 HD
ENDBRANCH  10  23
TORSDOF 6
ENDMDL
MODEL 3
REMARK VINA RESULT:      -5.9      2.737      3.933
REMARK  Name = min_compound940.pdb
REMARK  6 active torsions:
REMARK  status: ('A' for Active; 'I' for Inactive)
REMARK    1  A    between atoms: _3  and  _17
REMARK    2  A    between atoms: _5  and  _16
REMARK    3  A    between atoms: _8  and  _18
REMARK    4  A    between atoms: _10  and  _19
REMARK    5  A    between atoms: _11  and  _12
REMARK    6  A    between atoms: _15  and  _16
REMARK                            x       y       z     vdW  Elec       q    Type
REMARK                         _______ _______ _______ _____ _____    ______ ____
ROOT
ATOM      1  N   UNL     1     -14.850   2.296 -22.384  0.00  0.00    -0.251 NA
ATOM      2  C   UNL     1     -13.781   1.612 -22.068  0.00  0.00    +0.183 C 
ATOM      3  N   UNL     1     -13.093   1.557 -20.912  0.00  0.00    -0.290 N 
ATOM      4  H   UNL     1     -12.294   0.996 -20.781  0.00  0.00    +0.154 HD
ATOM      5  C   UNL     1     -13.611   2.351 -19.949  0.00  0.00    +0.131 A 
ATOM      6  N   UNL     1     -13.190   2.630 -18.677  0.00  0.00    -0.309 N 
ATOM      7  C   UNL     1     -14.066   3.567 -18.184  0.00  0.00    +0.201 A 
ATOM      8  N   UNL     1     -15.013   3.892 -19.050  0.00  0.00    -0.235 NA
ATOM      9  C   UNL     1     -14.736   3.108 -20.135  0.00  0.00    +0.120 A 
ATOM     10  C   UNL     1     -15.392   3.068 -21.389  0.00  0.00    +0.224 C 
ENDROOT
BRANCH   6  11
ATOM     11  C   UNL     1     -11.970   2.123 -18.092  0.00  0.00    +0.144 C 
ATOM     12  C   UNL     1     -11.387   2.742 -16.803  0.00  0.00    +0.174 C 
ATOM     13  C   UNL     1     -10.455   1.616 -16.277  0.00  0.00    +0.173 C 
ATOM     14  C   UNL     1     -11.153   0.368 -16.740  0.00  0.00    -0.016 C 
ATOM     15  C   UNL     1     -12.024   0.658 -17.721  0.00  0.00    +0.004 C 
BRANCH  12  16
ATOM     16  O   UNL     1     -12.363   3.039 -15.785  0.00  0.00    -0.387 OA
ATOM     17  H   UNL     1     -13.179   3.255 -16.282  0.00  0.00    +0.210 HD
ENDBRANCH  12  16
BRANCH  13  18
ATOM     18  O   UNL     1     -10.366   1.701 -14.856  0.00  0.00    -0.385 OA
ATOM     19  H   UNL     1     -11.031   2.374 -14.587  0.00  0.00    +0.210 HD
ENDBRANCH  13  18
BRANCH  14  20
ATOM     20  C   UNL     1     -10.822  -0.987 -16.238  0.00  0.00    +0.189 C 
BRANCH  20  21
ATOM     21  O   UNL     1      -9.466  -0.995 -15.803  0.00  0.00    -0.391 OA
ATOM     22  H   UNL     1      -8.970  -0.493 -16.474  0.00  0.00    +0.210 HD
ENDBRANCH  20  21
ENDBRANCH  14  20
ENDBRANCH   6  11
BRANCH  10  23
ATOM     23  N   UNL     1     -16.388   4.003 -21.770  0.00  0.00    -0.304 NA
ATOM     24  H   UNL     1     -17.137   3.924 -21.098  0.00  0.00    +0.121 HD
ATOM     25  H   UNL     1     -16.669   3.787 -22.719  0.00  0.00    +0.121 HD
ENDBRANCH  10  23
TORSDOF 6
ENDMDL
MODEL 4
REMARK VINA RESULT:      -5.9      1.867      3.261
REMARK  Name = min_compound940.pdb
REMARK  6 active torsions:
REMARK  status: ('A' for Active; 'I' for Inactive)
REMARK    1  A    between atoms: _3  and  _17
REMARK    2  A    between atoms: _5  and  _16
REMARK    3  A    between atoms: _8  and  _18
REMARK    4  A    between atoms: _10  and  _19
REMARK    5  A    between atoms: _11  and  _12
REMARK    6  A    between atoms: _15  and  _16
REMARK                            x       y       z     vdW  Elec       q    Type
REMARK                         _______ _______ _______ _____ _____    ______ ____
ROOT
ATOM      1  N   UNL     1     -13.610   7.931 -17.770  0.00  0.00    -0.251 NA
ATOM      2  C   UNL     1     -12.919   6.852 -18.034  0.00  0.00    +0.183 C 
ATOM      3  N   UNL     1     -13.020   5.609 -17.526  0.00  0.00    -0.290 N 
ATOM      4  H   UNL     1     -12.444   4.860 -17.803  0.00  0.00    +0.154 HD
ATOM      5  C   UNL     1     -13.994   5.494 -16.595  0.00  0.00    +0.131 A 
ATOM      6  N   UNL     1     -14.377   4.443 -15.807  0.00  0.00    -0.309 N 
ATOM      7  C   UNL     1     -15.373   4.924 -14.992  0.00  0.00    +0.201 A 
ATOM      8  N   UNL     1     -15.650   6.199 -15.216  0.00  0.00    -0.235 NA
ATOM      9  C   UNL     1     -14.804   6.536 -16.235  0.00  0.00    +0.120 A 
ATOM     10  C   UNL     1     -14.622   7.795 -16.855  0.00  0.00    +0.224 C 
ENDROOT
BRANCH   6  11
ATOM     11  C   UNL     1     -13.716   3.158 -15.781  0.00  0.00    +0.144 C 
ATOM     12  C   UNL     1     -13.859   2.165 -16.954  0.00  0.00    +0.174 C 
ATOM     13  C   UNL     1     -12.634   1.230 -16.759  0.00  0.00    +0.173 C 
ATOM     14  C   UNL     1     -11.613   2.149 -16.147  0.00  0.00    -0.016 C 
ATOM     15  C   UNL     1     -12.213   3.238 -15.640  0.00  0.00    +0.004 C 
BRANCH  12  16
ATOM     16  O   UNL     1     -13.772   2.764 -18.262  0.00  0.00    -0.387 OA
ATOM     17  H   UNL     1     -13.742   2.004 -18.879  0.00  0.00    +0.210 HD
ENDBRANCH  12  16
BRANCH  13  18
ATOM     18  O   UNL     1     -12.224   0.718 -18.025  0.00  0.00    -0.385 OA
ATOM     19  H   UNL     1     -12.460   1.409 -18.682  0.00  0.00    +0.210 HD
ENDBRANCH  13  18
BRANCH  14  20
ATOM     20  C   UNL     1     -10.174   1.814 -16.040  0.00  0.00    +0.189 C 
BRANCH  20  21
ATOM     21  O   UNL     1      -9.972   1.026 -14.871  0.00  0.00    -0.391 OA
ATOM     22  H   UNL     1      -9.339   0.332 -15.126  0.00  0.00    +0.210 HD
ENDBRANCH  20  21
ENDBRANCH  14  20
ENDBRANCH   6  11
BRANCH  10  23
ATOM     23  N   UNL     1     -15.214   8.989 -16.369  0.00  0.00    -0.304 NA
ATOM     24  H   UNL     1     -15.981   8.713 -15.773  0.00  0.00    +0.121 HD
ATOM     25  H   UNL     1     -15.500   9.541 -17.169  0.00  0.00    +0.121 HD
ENDBRANCH  10  23
TORSDOF 6
ENDMDL
MODEL 5
REMARK VINA RESULT:      -5.9      1.678      2.339
REMARK  Name = min_compound940.pdb
REMARK  6 active torsions:
REMARK  status: ('A' for Active; 'I' for Inactive)
REMARK    1  A    between atoms: _3  and  _17
REMARK    2  A    between atoms: _5  and  _16
REMARK    3  A    between atoms: _8  and  _18
REMARK    4  A    between atoms: _10  and  _19
REMARK    5  A    between atoms: _11  and  _12
REMARK    6  A    between atoms: _15  and  _16
REMARK                            x       y       z     vdW  Elec       q    Type
REMARK                         _______ _______ _______ _____ _____    ______ ____
ROOT
ATOM      1  N   UNL     1     -15.991   6.983 -16.575  0.00  0.00    -0.251 NA
ATOM      2  C   UNL     1     -16.118   5.771 -16.100  0.00  0.00    +0.183 C 
ATOM      3  N   UNL     1     -15.212   4.780 -15.992  0.00  0.00    -0.290 N 
ATOM      4  H   UNL     1     -15.417   3.897 -15.609  0.00  0.00    +0.154 HD
ATOM      5  C   UNL     1     -13.993   5.124 -16.464  0.00  0.00    +0.131 A 
ATOM      6  N   UNL     1     -12.835   4.405 -16.595  0.00  0.00    -0.309 N 
ATOM      7  C   UNL     1     -11.936   5.245 -17.209  0.00  0.00    +0.201 A 
ATOM      8  N   UNL     1     -12.442   6.441 -17.466  0.00  0.00    -0.235 NA
ATOM      9  C   UNL     1     -13.714   6.363 -16.972  0.00  0.00    +0.120 A 
ATOM     10  C   UNL     1     -14.741   7.336 -17.014  0.00  0.00    +0.224 C 
ENDROOT
BRANCH   6  11
ATOM     11  C   UNL     1     -12.703   3.002 -16.276  0.00  0.00    +0.144 C 
ATOM     12  C   UNL     1     -12.990   1.914 -17.333  0.00  0.00    +0.174 C 
ATOM     13  C   UNL     1     -12.245   0.678 -16.758  0.00  0.00    +0.173 C 
ATOM     14  C   UNL     1     -11.084   1.301 -16.034  0.00  0.00    -0.016 C 
ATOM     15  C   UNL     1     -11.324   2.602 -15.803  0.00  0.00    +0.004 C 
BRANCH  12  16
ATOM     16  O   UNL     1     -12.462   2.196 -18.644  0.00  0.00    -0.387 OA
ATOM     17  H   UNL     1     -12.996   1.641 -19.249  0.00  0.00    +0.210 HD
ENDBRANCH  12  16
BRANCH  13  18
ATOM     18  O   UNL     1     -11.834  -0.167 -17.831  0.00  0.00    -0.385 OA
ATOM     19  H   UNL     1     -12.549  -0.834 -17.935  0.00  0.00    +0.210 HD
ENDBRANCH  13  18
BRANCH  14  20
ATOM     20  C   UNL     1      -9.908   0.532 -15.562  0.00  0.00    +0.189 C 
BRANCH  20  21
ATOM     21  O   UNL     1     -10.208  -0.857 -15.642  0.00  0.00    -0.391 OA
ATOM     22  H   UNL     1     -10.239  -1.068 -16.592  0.00  0.00    +0.210 HD
ENDBRANCH  20  21
ENDBRANCH  14  20
ENDBRANCH   6  11
BRANCH  10  23
ATOM     23  N   UNL     1     -14.636   8.539 -17.757  0.00  0.00    -0.304 NA
ATOM     24  H   UNL     1     -14.042   8.343 -18.549  0.00  0.00    +0.121 HD
ATOM     25  H   UNL     1     -14.267   9.253 -17.140  0.00  0.00    +0.121 HD
ENDBRANCH  10  23
TORSDOF 6
ENDMDL
MODEL 6
REMARK VINA RESULT:      -5.9     13.542     15.385
REMARK  Name = min_compound940.pdb
REMARK  6 active torsions:
REMARK  status: ('A' for Active; 'I' for Inactive)
REMARK    1  A    between atoms: _3  and  _17
REMARK    2  A    between atoms: _5  and  _16
REMARK    3  A    between atoms: _8  and  _18
REMARK    4  A    between atoms: _10  and  _19
REMARK    5  A    between atoms: _11  and  _12
REMARK    6  A    between atoms: _15  and  _16
REMARK                            x       y       z     vdW  Elec       q    Type
REMARK                         _______ _______ _______ _____ _____    ______ ____
ROOT
ATOM      1  N   UNL     1     -14.857  -6.333  -1.635  0.00  0.00    -0.251 NA
ATOM      2  C   UNL     1     -13.827  -5.668  -2.090  0.00  0.00    +0.183 C 
ATOM      3  N   UNL     1     -13.740  -4.403  -2.545  0.00  0.00    -0.290 N 
ATOM      4  H   UNL     1     -12.901  -3.997  -2.862  0.00  0.00    +0.154 HD
ATOM      5  C   UNL     1     -14.922  -3.749  -2.521  0.00  0.00    +0.131 A 
ATOM      6  N   UNL     1     -15.276  -2.496  -2.944  0.00  0.00    -0.309 N 
ATOM      7  C   UNL     1     -16.631  -2.397  -2.741  0.00  0.00    +0.201 A 
ATOM      8  N   UNL     1     -17.155  -3.492  -2.213  0.00  0.00    -0.235 NA
ATOM      9  C   UNL     1     -16.076  -4.317  -2.054  0.00  0.00    +0.120 A 
ATOM     10  C   UNL     1     -16.044  -5.649  -1.576  0.00  0.00    +0.224 C 
ENDROOT
BRANCH   6  11
ATOM     11  C   UNL     1     -14.381  -1.576  -3.607  0.00  0.00    +0.144 C 
ATOM     12  C   UNL     1     -14.563  -1.222  -5.099  0.00  0.00    +0.174 C 
ATOM     13  C   UNL     1     -13.782   0.114  -5.229  0.00  0.00    +0.173 C 
ATOM     14  C   UNL     1     -13.959   0.732  -3.870  0.00  0.00    -0.016 C 
ATOM     15  C   UNL     1     -14.331  -0.201  -2.979  0.00  0.00    +0.004 C 
BRANCH  12  16
ATOM     16  O   UNL     1     -15.929  -0.993  -5.499  0.00  0.00    -0.387 OA
ATOM     17  H   UNL     1     -15.860  -0.437  -6.302  0.00  0.00    +0.210 HD
ENDBRANCH  12  16
BRANCH  13  18
ATOM     18  O   UNL     1     -14.360   0.900  -6.270  0.00  0.00    -0.385 OA
ATOM     19  H   UNL     1     -13.820   1.720  -6.316  0.00  0.00    +0.210 HD
ENDBRANCH  13  18
BRANCH  14  20
ATOM     20  C   UNL     1     -13.651   2.151  -3.573  0.00  0.00    +0.189 C 
BRANCH  20  21
ATOM     21  O   UNL     1     -14.775   2.948  -3.930  0.00  0.00    -0.391 OA
ATOM     22  H   UNL     1     -14.615   3.824  -3.536  0.00  0.00    +0.210 HD
ENDBRANCH  20  21
ENDBRANCH  14  20
ENDBRANCH   6  11
BRANCH  10  23
ATOM     23  N   UNL     1     -17.215  -6.410  -1.331  0.00  0.00    -0.304 NA
ATOM     24  H   UNL     1     -17.035  -7.342  -1.674  0.00  0.00    +0.121 HD
ATOM     25  H   UNL     1     -17.988  -5.948  -1.795  0.00  0.00    +0.121 HD
ENDBRANCH  10  23
TORSDOF 6
ENDMDL
MODEL 7
REMARK VINA RESULT:      -5.7      8.601     10.291
REMARK  Name = min_compound940.pdb
REMARK  6 active torsions:
REMARK  status: ('A' for Active; 'I' for Inactive)
REMARK    1  A    between atoms: _3  and  _17
REMARK    2  A    between atoms: _5  and  _16
REMARK    3  A    between atoms: _8  and  _18
REMARK    4  A    between atoms: _10  and  _19
REMARK    5  A    between atoms: _11  and  _12
REMARK    6  A    between atoms: _15  and  _16
REMARK                            x       y       z     vdW  Elec       q    Type
REMARK                         _______ _______ _______ _____ _____    ______ ____
ROOT
ATOM      1  N   UNL     1     -16.291   5.014 -10.179  0.00  0.00    -0.251 NA
ATOM      2  C   UNL     1     -15.963   3.750 -10.245  0.00  0.00    +0.183 C 
ATOM      3  N   UNL     1     -16.124   2.761  -9.344  0.00  0.00    -0.290 N 
ATOM      4  H   UNL     1     -15.840   1.832  -9.502  0.00  0.00    +0.154 HD
ATOM      5  C   UNL     1     -16.714   3.177  -8.202  0.00  0.00    +0.131 A 
ATOM      6  N   UNL     1     -16.998   2.520  -7.035  0.00  0.00    -0.309 N 
ATOM      7  C   UNL     1     -17.532   3.462  -6.189  0.00  0.00    +0.201 A 
ATOM      8  N   UNL     1     -17.612   4.663  -6.741  0.00  0.00    -0.235 NA
ATOM      9  C   UNL     1     -17.125   4.466  -8.004  0.00  0.00    +0.120 A 
ATOM     10  C   UNL     1     -16.926   5.418  -9.033  0.00  0.00    +0.224 C 
ENDROOT
BRANCH   6  11
ATOM     11  C   UNL     1     -16.638   1.147  -6.763  0.00  0.00    +0.144 C 
ATOM     12  C   UNL     1     -15.290   0.567  -7.245  0.00  0.00    +0.174 C 
ATOM     13  C   UNL     1     -15.105  -0.671  -6.324  0.00  0.00    +0.173 C 
ATOM     14  C   UNL     1     -15.784  -0.240  -5.054  0.00  0.00    -0.016 C 
ATOM     15  C   UNL     1     -16.604   0.796  -5.293  0.00  0.00    +0.004 C 
BRANCH  12  16
ATOM     16  O   UNL     1     -14.160   1.443  -7.065  0.00  0.00    -0.387 OA
ATOM     17  H   UNL     1     -14.554   2.334  -6.961  0.00  0.00    +0.210 HD
ENDBRANCH  12  16
BRANCH  13  18
ATOM     18  O   UNL     1     -13.712  -0.922  -6.146  0.00  0.00    -0.385 OA
ATOM     19  H   UNL     1     -13.630  -1.355  -5.267  0.00  0.00    +0.210 HD
ENDBRANCH  13  18
BRANCH  14  20
ATOM     20  C   UNL     1     -15.627  -0.951  -3.763  0.00  0.00    +0.189 C 
BRANCH  20  21
ATOM     21  O   UNL     1     -15.006  -2.209  -4.006  0.00  0.00    -0.391 OA
ATOM     22  H   UNL     1     -15.725  -2.815  -4.258  0.00  0.00    +0.210 HD
ENDBRANCH  20  21
ENDBRANCH  14  20
ENDBRANCH   6  11
BRANCH  10  23
ATOM     23  N   UNL     1     -17.063   6.815  -8.831  0.00  0.00    -0.304 NA
ATOM     24  H   UNL     1     -17.940   6.957  -8.351  0.00  0.00    +0.121 HD
ATOM     25  H   UNL     1     -17.020   7.265  -9.738  0.00  0.00    +0.121 HD
ENDBRANCH  10  23
TORSDOF 6
ENDMDL
MODEL 8
REMARK VINA RESULT:      -5.7      1.641      2.812
REMARK  Name = min_compound940.pdb
REMARK  6 active torsions:
REMARK  status: ('A' for Active; 'I' for Inactive)
REMARK    1  A    between atoms: _3  and  _17
REMARK    2  A    between atoms: _5  and  _16
REMARK    3  A    between atoms: _8  and  _18
REMARK    4  A    between atoms: _10  and  _19
REMARK    5  A    between atoms: _11  and  _12
REMARK    6  A    between atoms: _15  and  _16
REMARK                            x       y       z     vdW  Elec       q    Type
REMARK                         _______ _______ _______ _____ _____    ______ ____
ROOT
ATOM      1  N   UNL     1     -15.204   8.497 -16.196  0.00  0.00    -0.251 NA
ATOM      2  C   UNL     1     -14.552   7.909 -17.166  0.00  0.00    +0.183 C 
ATOM      3  N   UNL     1     -14.181   6.623 -17.310  0.00  0.00    -0.290 N 
ATOM      4  H   UNL     1     -13.692   6.283 -18.094  0.00  0.00    +0.154 HD
ATOM      5  C   UNL     1     -14.548   5.845 -16.266  0.00  0.00    +0.131 A 
ATOM      6  N   UNL     1     -14.316   4.525 -15.992  0.00  0.00    -0.309 N 
ATOM      7  C   UNL     1     -14.860   4.294 -14.752  0.00  0.00    +0.201 A 
ATOM      8  N   UNL     1     -15.425   5.371 -14.229  0.00  0.00    -0.235 NA
ATOM      9  C   UNL     1     -15.248   6.324 -15.194  0.00  0.00    +0.120 A 
ATOM     10  C   UNL     1     -15.608   7.693 -15.161  0.00  0.00    +0.224 C 
ENDROOT
BRANCH   6  11
ATOM     11  C   UNL     1     -13.516   3.648 -16.816  0.00  0.00    +0.144 C 
ATOM     12  C   UNL     1     -11.991   3.853 -16.950  0.00  0.00    +0.174 C 
ATOM     13  C   UNL     1     -11.504   2.463 -17.445  0.00  0.00    +0.173 C 
ATOM     14  C   UNL     1     -12.487   1.523 -16.805  0.00  0.00    -0.016 C 
ATOM     15  C   UNL     1     -13.587   2.191 -16.420  0.00  0.00    +0.004 C 
BRANCH  12  16
ATOM     16  O   UNL     1     -11.315   4.159 -15.714  0.00  0.00    -0.387 OA
ATOM     17  H   UNL     1     -11.277   5.137 -15.691  0.00  0.00    +0.210 HD
ENDBRANCH  12  16
BRANCH  13  18
ATOM     18  O   UNL     1     -10.166   2.245 -17.002  0.00  0.00    -0.385 OA
ATOM     19  H   UNL     1      -9.592   2.720 -17.643  0.00  0.00    +0.210 HD
ENDBRANCH  13  18
BRANCH  14  20
ATOM     20  C   UNL     1     -12.283   0.057 -16.727  0.00  0.00    +0.189 C 
BRANCH  20  21
ATOM     21  O   UNL     1     -11.475  -0.352 -17.826  0.00  0.00    -0.391 OA
ATOM     22  H   UNL     1     -11.717   0.234 -18.565  0.00  0.00    +0.210 HD
ENDBRANCH  20  21
ENDBRANCH  14  20
ENDBRANCH   6  11
BRANCH  10  23
ATOM     23  N   UNL     1     -16.086   8.339 -13.993  0.00  0.00    -0.304 NA
ATOM     24  H   UNL     1     -16.263   7.617 -13.311  0.00  0.00    +0.121 HD
ATOM     25  H   UNL     1     -16.912   8.868 -14.248  0.00  0.00    +0.121 HD
ENDBRANCH  10  23
TORSDOF 6
ENDMDL
MODEL 9
REMARK VINA RESULT:      -5.7      1.973      1.990
REMARK  Name = min_compound940.pdb
REMARK  6 active torsions:
REMARK  status: ('A' for Active; 'I' for Inactive)
REMARK    1  A    between atoms: _3  and  _17
REMARK    2  A    between atoms: _5  and  _16
REMARK    3  A    between atoms: _8  and  _18
REMARK    4  A    between atoms: _10  and  _19
REMARK    5  A    between atoms: _11  and  _12
REMARK    6  A    between atoms: _15  and  _16
REMARK                            x       y       z     vdW  Elec       q    Type
REMARK                         _______ _______ _______ _____ _____    ______ ____
ROOT
ATOM      1  N   UNL     1     -17.062   2.933 -15.562  0.00  0.00    -0.251 NA
ATOM      2  C   UNL     1     -15.963   2.375 -15.121  0.00  0.00    +0.183 C 
ATOM      3  N   UNL     1     -14.748   2.274 -15.693  0.00  0.00    -0.290 N 
ATOM      4  H   UNL     1     -13.981   1.832 -15.264  0.00  0.00    +0.154 HD
ATOM      5  C   UNL     1     -14.691   2.842 -16.919  0.00  0.00    +0.131 A 
ATOM      6  N   UNL     1     -13.685   2.904 -17.845  0.00  0.00    -0.309 N 
ATOM      7  C   UNL     1     -14.217   3.540 -18.941  0.00  0.00    +0.201 A 
ATOM      8  N   UNL     1     -15.482   3.890 -18.768  0.00  0.00    -0.235 NA
ATOM      9  C   UNL     1     -15.758   3.475 -17.495  0.00  0.00    +0.120 A 
ATOM     10  C   UNL     1     -16.983   3.542 -16.789  0.00  0.00    +0.224 C 
ENDROOT
BRANCH   6  11
ATOM     11  C   UNL     1     -12.396   2.268 -17.694  0.00  0.00    +0.144 C 
ATOM     12  C   UNL     1     -11.363   2.794 -16.674  0.00  0.00    +0.174 C 
ATOM     13  C   UNL     1     -10.425   1.571 -16.481  0.00  0.00    +0.173 C 
ATOM     14  C   UNL     1     -11.356   0.407 -16.680  0.00  0.00    -0.016 C 
ATOM     15  C   UNL     1     -12.469   0.806 -17.318  0.00  0.00    +0.004 C 
BRANCH  12  16
ATOM     16  O   UNL     1     -11.914   3.154 -15.392  0.00  0.00    -0.387 OA
ATOM     17  H   UNL     1     -11.153   3.508 -14.888  0.00  0.00    +0.210 HD
ENDBRANCH  12  16
BRANCH  13  18
ATOM     18  O   UNL     1      -9.864   1.608 -15.170  0.00  0.00    -0.385 OA
ATOM     19  H   UNL     1     -10.061   2.506 -14.820  0.00  0.00    +0.210 HD
ENDBRANCH  13  18
BRANCH  14  20
ATOM     20  C   UNL     1     -11.013  -0.986 -16.308  0.00  0.00    +0.189 C 
BRANCH  20  21
ATOM     21  O   UNL     1      -9.630  -1.043 -15.976  0.00  0.00    -0.391 OA
ATOM     22  H   UNL     1      -9.437  -1.982 -15.805  0.00  0.00    +0.210 HD
ENDBRANCH  20  21
ENDBRANCH  14  20
ENDBRANCH   6  11
BRANCH  10  23
ATOM     23  N   UNL     1     -18.205   3.927 -17.395  0.00  0.00    -0.304 NA
ATOM     24  H   UNL     1     -18.293   3.389 -18.245  0.00  0.00    +0.121 HD
ATOM     25  H   UNL     1     -18.173   4.928 -17.550  0.00  0.00    +0.121 HD
ENDBRANCH  10  23
TORSDOF 6
ENDMDL
