MODEL 1
REMARK VINA RESULT:      -5.9      0.000      0.000
REMARK  Name = min_compound977.pdb
REMARK  10 active torsions:
REMARK  status: ('A' for Active; 'I' for Inactive)
REMARK    1  A    between atoms: _7  and  _9
REMARK    2  A    between atoms: _9  and  _10
REMARK    3  A    between atoms: _10  and  _11
REMARK    4  A    between atoms: _10  and  _12
REMARK    5  A    between atoms: _12  and  _13
REMARK    6  A    between atoms: _13  and  _14
REMARK    7  A    between atoms: _14  and  _15
REMARK    8  A    between atoms: _15  and  _16
REMARK    9  A    between atoms: _16  and  _17
REMARK   10  A    between atoms: _18  and  _20
REMARK                            x       y       z     vdW  Elec       q    Type
REMARK                         _______ _______ _______ _____ _____    ______ ____
ROOT
ATOM      1  C   UNL     1     -15.672   2.341  -3.874  0.00  0.00    +0.009 A 
ATOM      2  C   UNL     1     -16.052   0.943  -3.657  0.00  0.00    +0.019 A 
ATOM      3  C   UNL     1     -17.208   0.376  -4.083  0.00  0.00    +0.319 C 
ATOM      4  O   UNL     1     -17.408  -0.991  -3.869  0.00  0.00    -0.195 OA
ATOM      5  O   UNL     1     -16.902  -1.335  -2.527  0.00  0.00    -0.195 OA
ATOM      6  C   UNL     1     -15.526  -1.100  -2.505  0.00  0.00    +0.316 C 
ATOM      7  C   UNL     1     -15.055   0.051  -3.029  0.00  0.00    +0.018 A 
ATOM      8  C   UNL     1     -13.650   0.466  -3.078  0.00  0.00    +0.009 A 
ATOM      9  C   UNL     1     -13.344   1.722  -3.457  0.00  0.00    +0.000 A 
ATOM     10  C   UNL     1     -14.378   2.697  -3.780  0.00  0.00    +0.000 A 
ENDROOT
BRANCH   6  11
ATOM     11  O   UNL     1     -14.750  -2.020  -1.835  0.00  0.00    -0.361 OA
ATOM     12  H   UNL     1     -13.949  -2.189  -2.355  0.00  0.00    +0.213 HD
ENDBRANCH   6  11
BRANCH   3  13
ATOM     13  O   UNL     1     -18.128   1.019  -4.914  0.00  0.00    -0.342 OA
BRANCH  13  14
ATOM     14  C   UNL     1     -18.104   0.605  -6.461  0.00  0.00    +0.119 C 
ATOM     15  C   UNL     1     -19.587   0.125  -6.829  0.00  0.00    +0.038 C 
BRANCH  14  16
ATOM     16  C   UNL     1     -18.330   1.975  -7.027  0.00  0.00    +0.031 C 
BRANCH  16  17
ATOM     17  C   UNL     1     -16.758   2.286  -7.245  0.00  0.00    +0.002 C 
BRANCH  17  18
ATOM     18  C   UNL     1     -15.943   1.056  -7.668  0.00  0.00    +0.000 C 
BRANCH  18  19
ATOM     19  C   UNL     1     -14.474   1.194  -7.257  0.00  0.00    -0.000 C 
BRANCH  19  20
ATOM     20  C   UNL     1     -13.960  -0.076  -6.580  0.00  0.00    -0.003 C 
ATOM     21  C   UNL     1     -15.027  -1.158  -6.546  0.00  0.00    +0.004 C 
ENDBRANCH  19  20
ENDBRANCH  18  19
ENDBRANCH  17  18
ENDBRANCH  16  17
ENDBRANCH  14  16
ENDBRANCH  13  14
ENDBRANCH   3  13
TORSDOF 8
ENDMDL
MODEL 2
REMARK VINA RESULT:      -5.9      9.392     11.803
REMARK  Name = min_compound977.pdb
REMARK  10 active torsions:
REMARK  status: ('A' for Active; 'I' for Inactive)
REMARK    1  A    between atoms: _7  and  _9
REMARK    2  A    between atoms: _9  and  _10
REMARK    3  A    between atoms: _10  and  _11
REMARK    4  A    between atoms: _10  and  _12
REMARK    5  A    between atoms: _12  and  _13
REMARK    6  A    between atoms: _13  and  _14
REMARK    7  A    between atoms: _14  and  _15
REMARK    8  A    between atoms: _15  and  _16
REMARK    9  A    between atoms: _16  and  _17
REMARK   10  A    between atoms: _18  and  _20
REMARK                            x       y       z     vdW  Elec       q    Type
REMARK                         _______ _______ _______ _____ _____    ______ ____
ROOT
ATOM      1  C   UNL     1     -14.928   4.489 -12.921  0.00  0.00    +0.009 A 
ATOM      2  C   UNL     1     -15.273   3.807 -14.171  0.00  0.00    +0.019 A 
ATOM      3  C   UNL     1     -14.414   3.574 -15.194  0.00  0.00    +0.319 C 
ATOM      4  O   UNL     1     -14.862   2.845 -16.299  0.00  0.00    -0.195 OA
ATOM      5  O   UNL     1     -16.241   3.267 -16.613  0.00  0.00    -0.195 OA
ATOM      6  C   UNL     1     -17.056   2.937 -15.529  0.00  0.00    +0.316 C 
ATOM      7  C   UNL     1     -16.627   3.224 -14.282  0.00  0.00    +0.018 A 
ATOM      8  C   UNL     1     -17.355   2.963 -13.037  0.00  0.00    +0.009 A 
ATOM      9  C   UNL     1     -16.891   3.473 -11.879  0.00  0.00    +0.000 A 
ATOM     10  C   UNL     1     -15.705   4.317 -11.837  0.00  0.00    +0.000 A 
ENDROOT
BRANCH   6  11
ATOM     11  O   UNL     1     -18.308   2.442 -15.822  0.00  0.00    -0.361 OA
ATOM     12  H   UNL     1     -18.603   2.823 -16.664  0.00  0.00    +0.213 HD
ENDBRANCH   6  11
BRANCH   3  13
ATOM     13  O   UNL     1     -13.043   3.830 -15.129  0.00  0.00    -0.342 OA
BRANCH  13  14
ATOM     14  C   UNL     1     -12.174   3.394 -16.401  0.00  0.00    +0.119 C 
ATOM     15  C   UNL     1     -11.298   4.669 -16.817  0.00  0.00    +0.038 C 
BRANCH  14  16
ATOM     16  C   UNL     1     -11.037   2.770 -15.648  0.00  0.00    +0.031 C 
BRANCH  16  17
ATOM     17  C   UNL     1     -10.132   2.519 -16.965  0.00  0.00    +0.002 C 
BRANCH  17  18
ATOM     18  C   UNL     1     -10.399   1.168 -17.645  0.00  0.00    +0.000 C 
BRANCH  18  19
ATOM     19  C   UNL     1      -9.285   0.163 -17.339  0.00  0.00    -0.000 C 
BRANCH  19  20
ATOM     20  C   UNL     1      -9.610  -0.676 -16.104  0.00  0.00    -0.003 C 
ATOM     21  C   UNL     1     -11.078  -1.074 -16.074  0.00  0.00    +0.004 C 
ENDBRANCH  19  20
ENDBRANCH  18  19
ENDBRANCH  17  18
ENDBRANCH  16  17
ENDBRANCH  14  16
ENDBRANCH  13  14
ENDBRANCH   3  13
TORSDOF 8
ENDMDL
MODEL 3
REMARK VINA RESULT:      -5.8      1.230      1.655
REMARK  Name = min_compound977.pdb
REMARK  10 active torsions:
REMARK  status: ('A' for Active; 'I' for Inactive)
REMARK    1  A    between atoms: _7  and  _9
REMARK    2  A    between atoms: _9  and  _10
REMARK    3  A    between atoms: _10  and  _11
REMARK    4  A    between atoms: _10  and  _12
REMARK    5  A    between atoms: _12  and  _13
REMARK    6  A    between atoms: _13  and  _14
REMARK    7  A    between atoms: _14  and  _15
REMARK    8  A    between atoms: _15  and  _16
REMARK    9  A    between atoms: _16  and  _17
REMARK   10  A    between atoms: _18  and  _20
REMARK                            x       y       z     vdW  Elec       q    Type
REMARK                         _______ _______ _______ _____ _____    ______ ____
ROOT
ATOM      1  C   UNL     1     -14.759   2.759  -3.848  0.00  0.00    +0.009 A 
ATOM      2  C   UNL     1     -15.856   1.790  -3.885  0.00  0.00    +0.019 A 
ATOM      3  C   UNL     1     -17.038   1.976  -4.523  0.00  0.00    +0.319 C 
ATOM      4  O   UNL     1     -17.969   0.933  -4.538  0.00  0.00    -0.195 OA
ATOM      5  O   UNL     1     -17.973   0.288  -3.211  0.00  0.00    -0.195 OA
ATOM      6  C   UNL     1     -16.714  -0.272  -2.993  0.00  0.00    +0.316 C 
ATOM      7  C   UNL     1     -15.618   0.462  -3.283  0.00  0.00    +0.018 A 
ATOM      8  C   UNL     1     -14.225   0.040  -3.104  0.00  0.00    +0.009 A 
ATOM      9  C   UNL     1     -13.236   0.942  -3.255  0.00  0.00    +0.000 A 
ATOM     10  C   UNL     1     -13.516   2.341  -3.551  0.00  0.00    +0.000 A 
ENDROOT
BRANCH   6  11
ATOM     11  O   UNL     1     -16.680  -1.505  -2.379  0.00  0.00    -0.361 OA
ATOM     12  H   UNL     1     -17.072  -2.160  -2.976  0.00  0.00    +0.213 HD
ENDBRANCH   6  11
BRANCH   3  13
ATOM     13  O   UNL     1     -17.308   3.066  -5.354  0.00  0.00    -0.342 OA
BRANCH  13  14
ATOM     14  C   UNL     1     -18.242   2.782  -6.623  0.00  0.00    +0.119 C 
ATOM     15  C   UNL     1     -19.070   4.126  -6.893  0.00  0.00    +0.038 C 
BRANCH  14  16
ATOM     16  C   UNL     1     -17.229   3.110  -7.680  0.00  0.00    +0.031 C 
BRANCH  16  17
ATOM     17  C   UNL     1     -17.357   1.682  -8.429  0.00  0.00    +0.002 C 
BRANCH  17  18
ATOM     18  C   UNL     1     -16.375   0.625  -7.906  0.00  0.00    +0.000 C 
BRANCH  18  19
ATOM     19  C   UNL     1     -15.037   1.256  -7.509  0.00  0.00    -0.000 C 
BRANCH  19  20
ATOM     20  C   UNL     1     -14.141   0.256  -6.778  0.00  0.00    -0.003 C 
ATOM     21  C   UNL     1     -14.877  -1.043  -6.490  0.00  0.00    +0.004 C 
ENDBRANCH  19  20
ENDBRANCH  18  19
ENDBRANCH  17  18
ENDBRANCH  16  17
ENDBRANCH  14  16
ENDBRANCH  13  14
ENDBRANCH   3  13
TORSDOF 8
ENDMDL
MODEL 4
REMARK VINA RESULT:      -5.7      9.325     11.717
REMARK  Name = min_compound977.pdb
REMARK  10 active torsions:
REMARK  status: ('A' for Active; 'I' for Inactive)
REMARK    1  A    between atoms: _7  and  _9
REMARK    2  A    between atoms: _9  and  _10
REMARK    3  A    between atoms: _10  and  _11
REMARK    4  A    between atoms: _10  and  _12
REMARK    5  A    between atoms: _12  and  _13
REMARK    6  A    between atoms: _13  and  _14
REMARK    7  A    between atoms: _14  and  _15
REMARK    8  A    between atoms: _15  and  _16
REMARK    9  A    between atoms: _16  and  _17
REMARK   10  A    between atoms: _18  and  _20
REMARK                            x       y       z     vdW  Elec       q    Type
REMARK                         _______ _______ _______ _____ _____    ______ ____
ROOT
ATOM      1  C   UNL     1     -12.548   0.346 -16.787  0.00  0.00    +0.009 A 
ATOM      2  C   UNL     1     -12.375   1.719 -16.307  0.00  0.00    +0.019 A 
ATOM      3  C   UNL     1     -13.378   2.614 -16.132  0.00  0.00    +0.319 C 
ATOM      4  O   UNL     1     -13.077   3.870 -15.596  0.00  0.00    -0.195 OA
ATOM      5  O   UNL     1     -11.805   4.336 -16.178  0.00  0.00    -0.195 OA
ATOM      6  C   UNL     1     -10.796   3.455 -15.786  0.00  0.00    +0.316 C 
ATOM      7  C   UNL     1     -11.024   2.127 -15.869  0.00  0.00    +0.018 A 
ATOM      8  C   UNL     1     -10.078   1.065 -15.516  0.00  0.00    +0.009 A 
ATOM      9  C   UNL     1     -10.370  -0.213 -15.828  0.00  0.00    +0.000 A 
ATOM     10  C   UNL     1     -11.587  -0.564 -16.548  0.00  0.00    +0.000 A 
ENDROOT
BRANCH   6  11
ATOM     11  O   UNL     1      -9.581   4.012 -15.450  0.00  0.00    -0.361 OA
ATOM     12  H   UNL     1      -8.874   3.460 -15.817  0.00  0.00    +0.213 HD
ENDBRANCH   6  11
BRANCH   3  13
ATOM     13  O   UNL     1     -14.733   2.295 -16.251  0.00  0.00    -0.342 OA
BRANCH  13  14
ATOM     14  C   UNL     1     -15.771   3.340 -15.623  0.00  0.00    +0.119 C 
ATOM     15  C   UNL     1     -16.923   3.554 -16.715  0.00  0.00    +0.038 C 
BRANCH  14  16
ATOM     16  C   UNL     1     -16.590   2.351 -14.849  0.00  0.00    +0.031 C 
BRANCH  16  17
ATOM     17  C   UNL     1     -16.440   3.132 -13.442  0.00  0.00    +0.002 C 
BRANCH  17  18
ATOM     18  C   UNL     1     -15.508   4.350 -13.513  0.00  0.00    +0.000 C 
BRANCH  18  19
ATOM     19  C   UNL     1     -15.091   4.814 -12.114  0.00  0.00    -0.000 C 
BRANCH  19  20
ATOM     20  C   UNL     1     -15.908   4.118 -11.026  0.00  0.00    -0.003 C 
ATOM     21  C   UNL     1     -16.257   5.074  -9.896  0.00  0.00    +0.004 C 
ENDBRANCH  19  20
ENDBRANCH  18  19
ENDBRANCH  17  18
ENDBRANCH  16  17
ENDBRANCH  14  16
ENDBRANCH  13  14
ENDBRANCH   3  13
TORSDOF 8
ENDMDL
MODEL 5
REMARK VINA RESULT:      -5.6      3.602      4.501
REMARK  Name = min_compound977.pdb
REMARK  10 active torsions:
REMARK  status: ('A' for Active; 'I' for Inactive)
REMARK    1  A    between atoms: _7  and  _9
REMARK    2  A    between atoms: _9  and  _10
REMARK    3  A    between atoms: _10  and  _11
REMARK    4  A    between atoms: _10  and  _12
REMARK    5  A    between atoms: _12  and  _13
REMARK    6  A    between atoms: _13  and  _14
REMARK    7  A    between atoms: _14  and  _15
REMARK    8  A    between atoms: _15  and  _16
REMARK    9  A    between atoms: _16  and  _17
REMARK   10  A    between atoms: _18  and  _20
REMARK                            x       y       z     vdW  Elec       q    Type
REMARK                         _______ _______ _______ _____ _____    ______ ____
ROOT
ATOM      1  C   UNL     1     -15.704   2.516  -4.883  0.00  0.00    +0.009 A 
ATOM      2  C   UNL     1     -15.631   1.457  -5.891  0.00  0.00    +0.019 A 
ATOM      3  C   UNL     1     -16.130   1.544  -7.149  0.00  0.00    +0.319 C 
ATOM      4  O   UNL     1     -15.923   0.480  -8.032  0.00  0.00    -0.195 OA
ATOM      5  O   UNL     1     -16.084  -0.785  -7.291  0.00  0.00    -0.195 OA
ATOM      6  C   UNL     1     -15.091  -0.848  -6.312  0.00  0.00    +0.316 C 
ATOM      7  C   UNL     1     -14.853   0.245  -5.557  0.00  0.00    +0.018 A 
ATOM      8  C   UNL     1     -13.864   0.352  -4.481  0.00  0.00    +0.009 A 
ATOM      9  C   UNL     1     -13.865   1.440  -3.686  0.00  0.00    +0.000 A 
ATOM     10  C   UNL     1     -14.854   2.498  -3.840  0.00  0.00    +0.000 A 
ENDROOT
BRANCH   6  11
ATOM     11  O   UNL     1     -14.500  -2.075  -6.106  0.00  0.00    -0.361 OA
ATOM     12  H   UNL     1     -14.262  -2.152  -5.169  0.00  0.00    +0.213 HD
ENDBRANCH   6  11
BRANCH   3  13
ATOM     13  O   UNL     1     -16.656   2.716  -7.696  0.00  0.00    -0.342 OA
BRANCH  13  14
ATOM     14  C   UNL     1     -16.684   2.809  -9.294  0.00  0.00    +0.119 C 
ATOM     15  C   UNL     1     -18.222   2.929  -9.720  0.00  0.00    +0.038 C 
BRANCH  14  16
ATOM     16  C   UNL     1     -16.465   4.289  -9.401  0.00  0.00    +0.031 C 
BRANCH  16  17
ATOM     17  C   UNL     1     -15.499   4.184 -10.693  0.00  0.00    +0.002 C 
BRANCH  17  18
ATOM     18  C   UNL     1     -15.898   5.128 -11.836  0.00  0.00    +0.000 C 
BRANCH  18  19
ATOM     19  C   UNL     1     -15.787   4.432 -13.196  0.00  0.00    -0.000 C 
BRANCH  19  20
ATOM     20  C   UNL     1     -16.669   3.186 -13.261  0.00  0.00    -0.003 C 
ATOM     21  C   UNL     1     -16.386   2.369 -14.512  0.00  0.00    +0.004 C 
ENDBRANCH  19  20
ENDBRANCH  18  19
ENDBRANCH  17  18
ENDBRANCH  16  17
ENDBRANCH  14  16
ENDBRANCH  13  14
ENDBRANCH   3  13
TORSDOF 8
ENDMDL
MODEL 6
REMARK VINA RESULT:      -5.4      1.803      4.809
REMARK  Name = min_compound977.pdb
REMARK  10 active torsions:
REMARK  status: ('A' for Active; 'I' for Inactive)
REMARK    1  A    between atoms: _7  and  _9
REMARK    2  A    between atoms: _9  and  _10
REMARK    3  A    between atoms: _10  and  _11
REMARK    4  A    between atoms: _10  and  _12
REMARK    5  A    between atoms: _12  and  _13
REMARK    6  A    between atoms: _13  and  _14
REMARK    7  A    between atoms: _14  and  _15
REMARK    8  A    between atoms: _15  and  _16
REMARK    9  A    between atoms: _16  and  _17
REMARK   10  A    between atoms: _18  and  _20
REMARK                            x       y       z     vdW  Elec       q    Type
REMARK                         _______ _______ _______ _____ _____    ______ ____
ROOT
ATOM      1  C   UNL     1     -15.305  -0.935  -6.499  0.00  0.00    +0.009 A 
ATOM      2  C   UNL     1     -16.613  -0.334  -6.770  0.00  0.00    +0.019 A 
ATOM      3  C   UNL     1     -17.787  -0.753  -6.238  0.00  0.00    +0.319 C 
ATOM      4  O   UNL     1     -18.953  -0.038  -6.527  0.00  0.00    -0.195 OA
ATOM      5  O   UNL     1     -18.920   0.362  -7.947  0.00  0.00    -0.195 OA
ATOM      6  C   UNL     1     -17.838   1.223  -8.133  0.00  0.00    +0.316 C 
ATOM      7  C   UNL     1     -16.646   0.895  -7.590  0.00  0.00    +0.018 A 
ATOM      8  C   UNL     1     -15.406   1.670  -7.698  0.00  0.00    +0.009 A 
ATOM      9  C   UNL     1     -14.249   1.131  -7.268  0.00  0.00    +0.000 A 
ATOM     10  C   UNL     1     -14.188  -0.225  -6.737  0.00  0.00    +0.000 A 
ENDROOT
BRANCH   6  11
ATOM     11  O   UNL     1     -18.038   2.300  -8.969  0.00  0.00    -0.361 OA
ATOM     12  H   UNL     1     -18.946   2.266  -9.306  0.00  0.00    +0.213 HD
ENDBRANCH   6  11
BRANCH   3  13
ATOM     13  O   UNL     1     -17.885  -1.731  -5.245  0.00  0.00    -0.342 OA
BRANCH  13  14
ATOM     14  C   UNL     1     -18.767  -1.360  -3.962  0.00  0.00    +0.119 C 
ATOM     15  C   UNL     1     -18.487  -2.496  -2.868  0.00  0.00    +0.038 C 
BRANCH  14  16
ATOM     16  C   UNL     1     -17.793  -0.410  -3.330  0.00  0.00    +0.031 C 
BRANCH  16  17
ATOM     17  C   UNL     1     -16.708  -1.556  -2.975  0.00  0.00    +0.002 C 
BRANCH  17  18
ATOM     18  C   UNL     1     -15.278  -1.020  -2.821  0.00  0.00    +0.000 C 
BRANCH  18  19
ATOM     19  C   UNL     1     -15.188   0.453  -3.229  0.00  0.00    -0.000 C 
BRANCH  19  20
ATOM     20  C   UNL     1     -13.737   0.924  -3.314  0.00  0.00    -0.003 C 
ATOM     21  C   UNL     1     -13.650   2.388  -3.714  0.00  0.00    +0.004 C 
ENDBRANCH  19  20
ENDBRANCH  18  19
ENDBRANCH  17  18
ENDBRANCH  16  17
ENDBRANCH  14  16
ENDBRANCH  13  14
ENDBRANCH   3  13
TORSDOF 8
ENDMDL
MODEL 7
REMARK VINA RESULT:      -5.3      2.024      4.752
REMARK  Name = min_compound977.pdb
REMARK  10 active torsions:
REMARK  status: ('A' for Active; 'I' for Inactive)
REMARK    1  A    between atoms: _7  and  _9
REMARK    2  A    between atoms: _9  and  _10
REMARK    3  A    between atoms: _10  and  _11
REMARK    4  A    between atoms: _10  and  _12
REMARK    5  A    between atoms: _12  and  _13
REMARK    6  A    between atoms: _13  and  _14
REMARK    7  A    between atoms: _14  and  _15
REMARK    8  A    between atoms: _15  and  _16
REMARK    9  A    between atoms: _16  and  _17
REMARK   10  A    between atoms: _18  and  _20
REMARK                            x       y       z     vdW  Elec       q    Type
REMARK                         _______ _______ _______ _____ _____    ______ ____
ROOT
ATOM      1  C   UNL     1     -16.189  -0.826  -6.477  0.00  0.00    +0.009 A 
ATOM      2  C   UNL     1     -16.700   0.446  -6.994  0.00  0.00    +0.019 A 
ATOM      3  C   UNL     1     -17.952   0.924  -6.787  0.00  0.00    +0.319 C 
ATOM      4  O   UNL     1     -18.281   2.190  -7.280  0.00  0.00    -0.195 OA
ATOM      5  O   UNL     1     -17.674   2.348  -8.614  0.00  0.00    -0.195 OA
ATOM      6  C   UNL     1     -16.286   2.296  -8.472  0.00  0.00    +0.316 C 
ATOM      7  C   UNL     1     -15.748   1.332  -7.695  0.00  0.00    +0.018 A 
ATOM      8  C   UNL     1     -14.319   1.122  -7.447  0.00  0.00    +0.009 A 
ATOM      9  C   UNL     1     -13.915   0.008  -6.805  0.00  0.00    +0.000 A 
ATOM     10  C   UNL     1     -14.861  -1.019  -6.388  0.00  0.00    +0.000 A 
ENDROOT
BRANCH   6  11
ATOM     11  O   UNL     1     -15.551   3.173  -9.239  0.00  0.00    -0.361 OA
ATOM     12  H   UNL     1     -15.282   3.921  -8.685  0.00  0.00    +0.213 HD
ENDBRANCH   6  11
BRANCH   3  13
ATOM     13  O   UNL     1     -18.878   0.328  -5.928  0.00  0.00    -0.342 OA
BRANCH  13  14
ATOM     14  C   UNL     1     -18.987   0.945  -4.455  0.00  0.00    +0.119 C 
ATOM     15  C   UNL     1     -20.498   0.724  -3.975  0.00  0.00    +0.038 C 
BRANCH  14  16
ATOM     16  C   UNL     1     -18.498  -0.260  -3.708  0.00  0.00    +0.031 C 
BRANCH  16  17
ATOM     17  C   UNL     1     -17.172   0.469  -3.139  0.00  0.00    +0.002 C 
BRANCH  17  18
ATOM     18  C   UNL     1     -15.985  -0.484  -2.940  0.00  0.00    +0.000 C 
BRANCH  18  19
ATOM     19  C   UNL     1     -14.650   0.258  -3.056  0.00  0.00    -0.000 C 
BRANCH  19  20
ATOM     20  C   UNL     1     -14.831   1.645  -3.671  0.00  0.00    -0.003 C 
ATOM     21  C   UNL     1     -13.525   2.423  -3.682  0.00  0.00    +0.004 C 
ENDBRANCH  19  20
ENDBRANCH  18  19
ENDBRANCH  17  18
ENDBRANCH  16  17
ENDBRANCH  14  16
ENDBRANCH  13  14
ENDBRANCH   3  13
TORSDOF 8
ENDMDL
MODEL 8
REMARK VINA RESULT:      -5.2      9.710     12.246
REMARK  Name = min_compound977.pdb
REMARK  10 active torsions:
REMARK  status: ('A' for Active; 'I' for Inactive)
REMARK    1  A    between atoms: _7  and  _9
REMARK    2  A    between atoms: _9  and  _10
REMARK    3  A    between atoms: _10  and  _11
REMARK    4  A    between atoms: _10  and  _12
REMARK    5  A    between atoms: _12  and  _13
REMARK    6  A    between atoms: _13  and  _14
REMARK    7  A    between atoms: _14  and  _15
REMARK    8  A    between atoms: _15  and  _16
REMARK    9  A    between atoms: _16  and  _17
REMARK   10  A    between atoms: _18  and  _20
REMARK                            x       y       z     vdW  Elec       q    Type
REMARK                         _______ _______ _______ _____ _____    ______ ____
ROOT
ATOM      1  C   UNL     1     -12.210   2.711 -16.245  0.00  0.00    +0.009 A 
ATOM      2  C   UNL     1     -12.771   4.001 -16.654  0.00  0.00    +0.019 A 
ATOM      3  C   UNL     1     -14.092   4.306 -16.665  0.00  0.00    +0.319 C 
ATOM      4  O   UNL     1     -14.482   5.604 -17.010  0.00  0.00    -0.195 OA
ATOM      5  O   UNL     1     -13.637   6.068 -18.126  0.00  0.00    -0.195 OA
ATOM      6  C   UNL     1     -12.317   6.127 -17.679  0.00  0.00    +0.316 C 
ATOM      7  C   UNL     1     -11.825   5.092 -16.966  0.00  0.00    +0.018 A 
ATOM      8  C   UNL     1     -10.464   4.981 -16.433  0.00  0.00    +0.009 A 
ATOM      9  C   UNL     1     -10.054   3.811 -15.904  0.00  0.00    +0.000 A 
ATOM     10  C   UNL     1     -10.916   2.636 -15.886  0.00  0.00    +0.000 A 
ENDROOT
BRANCH   6  11
ATOM     11  O   UNL     1     -11.564   7.200 -18.107  0.00  0.00    -0.361 OA
ATOM     12  H   UNL     1     -11.006   7.499 -17.373  0.00  0.00    +0.213 HD
ENDBRANCH   6  11
BRANCH   3  13
ATOM     13  O   UNL     1     -15.086   3.472 -16.149  0.00  0.00    -0.342 OA
BRANCH  13  14
ATOM     14  C   UNL     1     -15.925   4.042 -14.911  0.00  0.00    +0.119 C 
ATOM     15  C   UNL     1     -16.553   2.774 -14.160  0.00  0.00    +0.038 C 
BRANCH  14  16
ATOM     16  C   UNL     1     -14.786   4.142 -13.940  0.00  0.00    +0.031 C 
BRANCH  16  17
ATOM     17  C   UNL     1     -15.733   4.159 -12.630  0.00  0.00    +0.002 C 
BRANCH  17  18
ATOM     18  C   UNL     1     -15.051   4.749 -11.387  0.00  0.00    +0.000 C 
BRANCH  18  19
ATOM     19  C   UNL     1     -15.940   4.611 -10.147  0.00  0.00    -0.000 C 
BRANCH  19  20
ATOM     20  C   UNL     1     -16.981   3.506 -10.324  0.00  0.00    -0.003 C 
ATOM     21  C   UNL     1     -16.725   2.345  -9.376  0.00  0.00    +0.004 C 
ENDBRANCH  19  20
ENDBRANCH  18  19
ENDBRANCH  17  18
ENDBRANCH  16  17
ENDBRANCH  14  16
ENDBRANCH  13  14
ENDBRANCH   3  13
TORSDOF 8
ENDMDL
MODEL 9
REMARK VINA RESULT:      -5.1      3.978      7.012
REMARK  Name = min_compound977.pdb
REMARK  10 active torsions:
REMARK  status: ('A' for Active; 'I' for Inactive)
REMARK    1  A    between atoms: _7  and  _9
REMARK    2  A    between atoms: _9  and  _10
REMARK    3  A    between atoms: _10  and  _11
REMARK    4  A    between atoms: _10  and  _12
REMARK    5  A    between atoms: _12  and  _13
REMARK    6  A    between atoms: _13  and  _14
REMARK    7  A    between atoms: _14  and  _15
REMARK    8  A    between atoms: _15  and  _16
REMARK    9  A    between atoms: _16  and  _17
REMARK   10  A    between atoms: _18  and  _20
REMARK                            x       y       z     vdW  Elec       q    Type
REMARK                         _______ _______ _______ _____ _____    ______ ____
ROOT
ATOM      1  C   UNL     1     -17.031   2.920 -11.874  0.00  0.00    +0.009 A 
ATOM      2  C   UNL     1     -16.912   3.586 -10.574  0.00  0.00    +0.019 A 
ATOM      3  C   UNL     1     -16.922   2.956  -9.374  0.00  0.00    +0.319 C 
ATOM      4  O   UNL     1     -16.725   3.712  -8.214  0.00  0.00    -0.195 OA
ATOM      5  O   UNL     1     -17.455   4.986  -8.353  0.00  0.00    -0.195 OA
ATOM      6  C   UNL     1     -16.898   5.694  -9.419  0.00  0.00    +0.316 C 
ATOM      7  C   UNL     1     -16.642   5.039 -10.571  0.00  0.00    +0.018 A 
ATOM      8  C   UNL     1     -16.077   5.625 -11.789  0.00  0.00    +0.009 A 
ATOM      9  C   UNL     1     -16.052   4.898 -12.924  0.00  0.00    +0.000 A 
ATOM     10  C   UNL     1     -16.613   3.555 -12.983  0.00  0.00    +0.000 A 
ENDROOT
BRANCH   6  11
ATOM     11  O   UNL     1     -16.759   7.055  -9.254  0.00  0.00    -0.361 OA
ATOM     12  H   UNL     1     -16.033   7.220  -8.633  0.00  0.00    +0.213 HD
ENDBRANCH   6  11
BRANCH   3  13
ATOM     13  O   UNL     1     -16.904   1.568  -9.225  0.00  0.00    -0.342 OA
BRANCH  13  14
ATOM     14  C   UNL     1     -16.935   1.009  -7.725  0.00  0.00    +0.119 C 
ATOM     15  C   UNL     1     -18.415   0.454  -7.472  0.00  0.00    +0.038 C 
BRANCH  14  16
ATOM     16  C   UNL     1     -16.395  -0.359  -8.021  0.00  0.00    +0.031 C 
BRANCH  16  17
ATOM     17  C   UNL     1     -15.653  -0.517  -6.593  0.00  0.00    +0.002 C 
BRANCH  17  18
ATOM     18  C   UNL     1     -14.678   0.627  -6.279  0.00  0.00    +0.000 C 
BRANCH  18  19
ATOM     19  C   UNL     1     -13.639   0.201  -5.238  0.00  0.00    -0.000 C 
BRANCH  19  20
ATOM     20  C   UNL     1     -13.967   0.763  -3.855  0.00  0.00    -0.003 C 
ATOM     21  C   UNL     1     -13.691   2.257  -3.783  0.00  0.00    +0.004 C 
ENDBRANCH  19  20
ENDBRANCH  18  19
ENDBRANCH  17  18
ENDBRANCH  16  17
ENDBRANCH  14  16
ENDBRANCH  13  14
ENDBRANCH   3  13
TORSDOF 8
ENDMDL
