MODEL 1
REMARK VINA RESULT:      -8.0      0.000      0.000
REMARK  Name = min_compound991.pdb
REMARK  6 active torsions:
REMARK  status: ('A' for Active; 'I' for Inactive)
REMARK    1  A    between atoms: _1  and  _7
REMARK    2  A    between atoms: _1  and  _20
REMARK    3  A    between atoms: _8  and  _20
REMARK    4  A    between atoms: _10  and  _22
REMARK    5  A    between atoms: _15  and  _24
REMARK    6  A    between atoms: _22  and  _24
REMARK                            x       y       z     vdW  Elec       q    Type
REMARK                         _______ _______ _______ _____ _____    ______ ____
ROOT
ATOM      1  C   UNL     1     -14.032   5.171 -17.532  0.00  0.00    +0.073 A 
ATOM      2  C   UNL     1     -14.243   6.324 -18.298  0.00  0.00    +0.016 A 
ATOM      3  C   UNL     1     -13.172   7.179 -18.570  0.00  0.00    +0.001 A 
ATOM      4  C   UNL     1     -11.895   6.891 -18.080  0.00  0.00    +0.001 A 
ATOM      5  C   UNL     1     -11.679   5.735 -17.328  0.00  0.00    +0.016 A 
ATOM      6  C   UNL     1     -12.752   4.877 -17.059  0.00  0.00    +0.073 A 
ENDROOT
BRANCH   6   7
ATOM      7  C   UNL     1     -12.501   3.578 -16.438  0.00  0.00    +0.340 C 
ATOM      8  O   UNL     1     -12.691   3.385 -15.248  0.00  0.00    -0.245 OA
BRANCH   7   9
ATOM      9  O   UNL     1     -12.086   2.654 -17.354  0.00  0.00    -0.458 OA
BRANCH   9  10
ATOM     10  C   UNL     1     -11.482   1.497 -16.626  0.00  0.00    +0.177 C 
ATOM     11  C   UNL     1     -11.763   0.017 -17.136  0.00  0.00    +0.044 C 
ATOM     12  C   UNL     1     -11.001  -0.990 -16.051  0.00  0.00    +0.004 C 
ATOM     13  C   UNL     1      -9.573  -0.812 -16.473  0.00  0.00    +0.000 C 
ATOM     14  C   UNL     1      -9.376   0.238 -17.498  0.00  0.00    +0.004 C 
ATOM     15  C   UNL     1     -10.054   1.676 -17.048  0.00  0.00    +0.044 C 
ENDBRANCH   9  10
ENDBRANCH   7   9
ENDBRANCH   6   7
BRANCH   1  16
ATOM     16  C   UNL     1     -15.202   4.348 -17.162  0.00  0.00    +0.340 C 
ATOM     17  O   UNL     1     -15.619   3.392 -17.786  0.00  0.00    -0.245 OA
BRANCH  16  18
ATOM     18  O   UNL     1     -15.844   5.044 -16.187  0.00  0.00    -0.458 OA
BRANCH  18  19
ATOM     19  C   UNL     1     -15.991   4.466 -14.811  0.00  0.00    +0.177 C 
ATOM     20  C   UNL     1     -16.867   3.269 -14.590  0.00  0.00    +0.044 C 
ATOM     21  C   UNL     1     -17.014   2.690 -13.214  0.00  0.00    +0.004 C 
ATOM     22  C   UNL     1     -16.752   3.714 -12.042  0.00  0.00    +0.000 C 
ATOM     23  C   UNL     1     -15.409   4.507 -12.279  0.00  0.00    +0.004 C 
ATOM     24  C   UNL     1     -15.262   5.085 -13.655  0.00  0.00    +0.044 C 
ENDBRANCH  18  19
ENDBRANCH  16  18
ENDBRANCH   1  16
TORSDOF 6
ENDMDL
MODEL 2
REMARK VINA RESULT:      -7.9      0.994      5.982
REMARK  Name = min_compound991.pdb
REMARK  6 active torsions:
REMARK  status: ('A' for Active; 'I' for Inactive)
REMARK    1  A    between atoms: _1  and  _7
REMARK    2  A    between atoms: _1  and  _20
REMARK    3  A    between atoms: _8  and  _20
REMARK    4  A    between atoms: _10  and  _22
REMARK    5  A    between atoms: _15  and  _24
REMARK    6  A    between atoms: _22  and  _24
REMARK                            x       y       z     vdW  Elec       q    Type
REMARK                         _______ _______ _______ _____ _____    ______ ____
ROOT
ATOM      1  C   UNL     1     -12.317   4.992 -17.032  0.00  0.00    +0.073 A 
ATOM      2  C   UNL     1     -11.742   6.150 -17.569  0.00  0.00    +0.016 A 
ATOM      3  C   UNL     1     -12.561   7.139 -18.120  0.00  0.00    +0.001 A 
ATOM      4  C   UNL     1     -13.949   6.976 -18.139  0.00  0.00    +0.001 A 
ATOM      5  C   UNL     1     -14.527   5.829 -17.593  0.00  0.00    +0.016 A 
ATOM      6  C   UNL     1     -13.705   4.841 -17.038  0.00  0.00    +0.073 A 
ENDROOT
BRANCH   6   7
ATOM      7  C   UNL     1     -14.305   3.732 -16.299  0.00  0.00    +0.340 C 
ATOM      8  O   UNL     1     -14.739   2.741 -16.864  0.00  0.00    -0.245 OA
BRANCH   7   9
ATOM      9  O   UNL     1     -14.269   3.947 -14.951  0.00  0.00    -0.458 OA
BRANCH   9  10
ATOM     10  C   UNL     1     -15.671   4.024 -14.441  0.00  0.00    +0.177 C 
ATOM     11  C   UNL     1     -16.420   2.692 -14.000  0.00  0.00    +0.044 C 
ATOM     12  C   UNL     1     -17.958   3.156 -13.567  0.00  0.00    +0.004 C 
ATOM     13  C   UNL     1     -17.687   3.785 -12.233  0.00  0.00    +0.000 C 
ATOM     14  C   UNL     1     -16.249   3.901 -11.904  0.00  0.00    +0.004 C 
ATOM     15  C   UNL     1     -15.399   4.652 -13.106  0.00  0.00    +0.044 C 
ENDBRANCH   9  10
ENDBRANCH   7   9
ENDBRANCH   6   7
BRANCH   1  16
ATOM     16  C   UNL     1     -11.423   3.914 -16.564  0.00  0.00    +0.340 C 
ATOM     17  O   UNL     1     -10.635   4.000 -15.643  0.00  0.00    -0.245 OA
BRANCH  16  18
ATOM     18  O   UNL     1     -11.466   2.958 -17.530  0.00  0.00    -0.458 OA
BRANCH  18  19
ATOM     19  C   UNL     1     -11.064   1.547 -17.221  0.00  0.00    +0.177 C 
ATOM     20  C   UNL     1     -12.070   0.586 -16.660  0.00  0.00    +0.044 C 
ATOM     21  C   UNL     1     -11.668  -0.826 -16.352  0.00  0.00    +0.004 C 
ATOM     22  C   UNL     1     -10.130  -1.020 -16.057  0.00  0.00    +0.000 C 
ATOM     23  C   UNL     1      -9.254  -0.316 -17.165  0.00  0.00    +0.004 C 
ATOM     24  C   UNL     1      -9.656   1.096 -17.474  0.00  0.00    +0.044 C 
ENDBRANCH  18  19
ENDBRANCH  16  18
ENDBRANCH   1  16
TORSDOF 6
ENDMDL
MODEL 3
REMARK VINA RESULT:      -7.7      1.143      2.015
REMARK  Name = min_compound991.pdb
REMARK  6 active torsions:
REMARK  status: ('A' for Active; 'I' for Inactive)
REMARK    1  A    between atoms: _1  and  _7
REMARK    2  A    between atoms: _1  and  _20
REMARK    3  A    between atoms: _8  and  _20
REMARK    4  A    between atoms: _10  and  _22
REMARK    5  A    between atoms: _15  and  _24
REMARK    6  A    between atoms: _22  and  _24
REMARK                            x       y       z     vdW  Elec       q    Type
REMARK                         _______ _______ _______ _____ _____    ______ ____
ROOT
ATOM      1  C   UNL     1     -14.310   4.428 -17.563  0.00  0.00    +0.073 A 
ATOM      2  C   UNL     1     -14.377   5.805 -17.322  0.00  0.00    +0.016 A 
ATOM      3  C   UNL     1     -13.217   6.581 -17.404  0.00  0.00    +0.001 A 
ATOM      4  C   UNL     1     -11.992   5.987 -17.724  0.00  0.00    +0.001 A 
ATOM      5  C   UNL     1     -11.924   4.616 -17.978  0.00  0.00    +0.016 A 
ATOM      6  C   UNL     1     -13.088   3.842 -17.898  0.00  0.00    +0.073 A 
ENDROOT
BRANCH   6   7
ATOM      7  C   UNL     1     -13.062   2.450 -18.345  0.00  0.00    +0.340 C 
ATOM      8  O   UNL     1     -13.176   2.150 -19.522  0.00  0.00    -0.245 OA
BRANCH   7   9
ATOM      9  O   UNL     1     -12.859   1.590 -17.304  0.00  0.00    -0.458 OA
BRANCH   9  10
ATOM     10  C   UNL     1     -11.616   0.805 -17.567  0.00  0.00    +0.177 C 
ATOM     11  C   UNL     1     -10.226   1.318 -16.989  0.00  0.00    +0.044 C 
ATOM     12  C   UNL     1      -9.079   0.245 -17.541  0.00  0.00    +0.004 C 
ATOM     13  C   UNL     1      -9.347  -0.925 -16.641  0.00  0.00    +0.000 C 
ATOM     14  C   UNL     1     -10.544  -0.764 -15.786  0.00  0.00    +0.004 C 
ATOM     15  C   UNL     1     -11.884  -0.365 -16.667  0.00  0.00    +0.044 C 
ENDBRANCH   9  10
ENDBRANCH   7   9
ENDBRANCH   6   7
BRANCH   1  16
ATOM     16  C   UNL     1     -15.525   3.616 -17.355  0.00  0.00    +0.340 C 
ATOM     17  O   UNL     1     -16.599   3.801 -17.893  0.00  0.00    -0.245 OA
BRANCH  16  18
ATOM     18  O   UNL     1     -15.269   2.847 -16.263  0.00  0.00    -0.458 OA
BRANCH  18  19
ATOM     19  C   UNL     1     -15.790   3.244 -14.914  0.00  0.00    +0.177 C 
ATOM     20  C   UNL     1     -14.969   4.129 -14.023  0.00  0.00    +0.044 C 
ATOM     21  C   UNL     1     -15.490   4.526 -12.674  0.00  0.00    +0.004 C 
ATOM     22  C   UNL     1     -16.536   3.520 -12.054  0.00  0.00    +0.000 C 
ATOM     23  C   UNL     1     -17.654   3.153 -13.106  0.00  0.00    +0.004 C 
ATOM     24  C   UNL     1     -17.132   2.756 -14.456  0.00  0.00    +0.044 C 
ENDBRANCH  18  19
ENDBRANCH  16  18
ENDBRANCH   1  16
TORSDOF 6
ENDMDL
MODEL 4
REMARK VINA RESULT:      -7.3      2.427      6.543
REMARK  Name = min_compound991.pdb
REMARK  6 active torsions:
REMARK  status: ('A' for Active; 'I' for Inactive)
REMARK    1  A    between atoms: _1  and  _7
REMARK    2  A    between atoms: _1  and  _20
REMARK    3  A    between atoms: _8  and  _20
REMARK    4  A    between atoms: _10  and  _22
REMARK    5  A    between atoms: _15  and  _24
REMARK    6  A    between atoms: _22  and  _24
REMARK                            x       y       z     vdW  Elec       q    Type
REMARK                         _______ _______ _______ _____ _____    ______ ____
ROOT
ATOM      1  C   UNL     1     -12.847   4.489 -16.548  0.00  0.00    +0.073 A 
ATOM      2  C   UNL     1     -13.739   3.780 -15.736  0.00  0.00    +0.016 A 
ATOM      3  C   UNL     1     -15.028   4.278 -15.523  0.00  0.00    +0.001 A 
ATOM      4  C   UNL     1     -15.426   5.480 -16.114  0.00  0.00    +0.001 A 
ATOM      5  C   UNL     1     -14.543   6.183 -16.934  0.00  0.00    +0.016 A 
ATOM      6  C   UNL     1     -13.254   5.681 -17.149  0.00  0.00    +0.073 A 
ENDROOT
BRANCH   6   7
ATOM      7  C   UNL     1     -12.392   6.306 -18.151  0.00  0.00    +0.340 C 
ATOM      8  O   UNL     1     -11.571   7.158 -17.853  0.00  0.00    -0.245 OA
BRANCH   7   9
ATOM      9  O   UNL     1     -12.608   5.786 -19.396  0.00  0.00    -0.458 OA
BRANCH   9  10
ATOM     10  C   UNL     1     -12.267   6.826 -20.413  0.00  0.00    +0.177 C 
ATOM     11  C   UNL     1     -11.338   6.441 -21.646  0.00  0.00    +0.044 C 
ATOM     12  C   UNL     1     -11.120   7.848 -22.508  0.00  0.00    +0.004 C 
ATOM     13  C   UNL     1     -12.455   7.962 -23.183  0.00  0.00    +0.000 C 
ATOM     14  C   UNL     1     -13.444   6.957 -22.733  0.00  0.00    +0.004 C 
ATOM     15  C   UNL     1     -13.601   6.939 -21.088  0.00  0.00    +0.044 C 
ENDBRANCH   9  10
ENDBRANCH   7   9
ENDBRANCH   6   7
BRANCH   1  16
ATOM     16  C   UNL     1     -11.457   4.001 -16.661  0.00  0.00    +0.340 C 
ATOM     17  O   UNL     1     -10.478   4.542 -16.187  0.00  0.00    -0.245 OA
BRANCH  16  18
ATOM     18  O   UNL     1     -11.487   3.030 -17.612  0.00  0.00    -0.458 OA
BRANCH  18  19
ATOM     19  C   UNL     1     -11.115   1.618 -17.269  0.00  0.00    +0.177 C 
ATOM     20  C   UNL     1     -12.150   0.682 -16.721  0.00  0.00    +0.044 C 
ATOM     21  C   UNL     1     -11.778  -0.731 -16.378  0.00  0.00    +0.004 C 
ATOM     22  C   UNL     1     -10.252  -0.942 -16.037  0.00  0.00    +0.000 C 
ATOM     23  C   UNL     1      -9.335  -0.270 -17.132  0.00  0.00    +0.004 C 
ATOM     24  C   UNL     1      -9.707   1.142 -17.475  0.00  0.00    +0.044 C 
ENDBRANCH  18  19
ENDBRANCH  16  18
ENDBRANCH   1  16
TORSDOF 6
ENDMDL
MODEL 5
REMARK VINA RESULT:      -7.1     10.932     14.109
REMARK  Name = min_compound991.pdb
REMARK  6 active torsions:
REMARK  status: ('A' for Active; 'I' for Inactive)
REMARK    1  A    between atoms: _1  and  _7
REMARK    2  A    between atoms: _1  and  _20
REMARK    3  A    between atoms: _8  and  _20
REMARK    4  A    between atoms: _10  and  _22
REMARK    5  A    between atoms: _15  and  _24
REMARK    6  A    between atoms: _22  and  _24
REMARK                            x       y       z     vdW  Elec       q    Type
REMARK                         _______ _______ _______ _____ _____    ______ ____
ROOT
ATOM      1  C   UNL     1     -15.866   0.635  -3.505  0.00  0.00    +0.073 A 
ATOM      2  C   UNL     1     -15.917   2.003  -3.796  0.00  0.00    +0.016 A 
ATOM      3  C   UNL     1     -14.735   2.749  -3.828  0.00  0.00    +0.001 A 
ATOM      4  C   UNL     1     -13.506   2.136  -3.569  0.00  0.00    +0.001 A 
ATOM      5  C   UNL     1     -13.450   0.769  -3.292  0.00  0.00    +0.016 A 
ATOM      6  C   UNL     1     -14.634   0.023  -3.263  0.00  0.00    +0.073 A 
ENDROOT
BRANCH   6   7
ATOM      7  C   UNL     1     -14.569  -1.434  -3.162  0.00  0.00    +0.340 C 
ATOM      8  O   UNL     1     -14.434  -2.142  -4.147  0.00  0.00    -0.245 OA
BRANCH   7   9
ATOM      9  O   UNL     1     -14.635  -1.853  -1.864  0.00  0.00    -0.458 OA
BRANCH   9  10
ATOM     10  C   UNL     1     -14.523  -3.342  -1.835  0.00  0.00    +0.177 C 
ATOM     11  C   UNL     1     -13.187  -4.017  -1.295  0.00  0.00    +0.044 C 
ATOM     12  C   UNL     1     -13.399  -5.657  -1.483  0.00  0.00    +0.004 C 
ATOM     13  C   UNL     1     -14.339  -5.942  -0.350  0.00  0.00    +0.000 C 
ATOM     14  C   UNL     1     -14.823  -4.730   0.348  0.00  0.00    +0.004 C 
ATOM     15  C   UNL     1     -15.463  -3.626  -0.702  0.00  0.00    +0.044 C 
ENDBRANCH   9  10
ENDBRANCH   7   9
ENDBRANCH   6   7
BRANCH   1  16
ATOM     16  C   UNL     1     -17.137  -0.103  -3.362  0.00  0.00    +0.340 C 
ATOM     17  O   UNL     1     -17.833  -0.124  -2.366  0.00  0.00    -0.245 OA
BRANCH  16  18
ATOM     18  O   UNL     1     -17.195  -0.943  -4.429  0.00  0.00    -0.458 OA
BRANCH  18  19
ATOM     19  C   UNL     1     -17.296  -0.396  -5.822  0.00  0.00    +0.177 C 
ATOM     20  C   UNL     1     -16.276  -0.777  -6.854  0.00  0.00    +0.044 C 
ATOM     21  C   UNL     1     -16.377  -0.230  -8.247  0.00  0.00    +0.004 C 
ATOM     22  C   UNL     1     -17.148   1.142  -8.357  0.00  0.00    +0.000 C 
ATOM     23  C   UNL     1     -18.518   1.081  -7.577  0.00  0.00    +0.004 C 
ATOM     24  C   UNL     1     -18.417   0.533  -6.184  0.00  0.00    +0.044 C 
ENDBRANCH  18  19
ENDBRANCH  16  18
ENDBRANCH   1  16
TORSDOF 6
ENDMDL
MODEL 6
REMARK VINA RESULT:      -7.1      2.556      4.877
REMARK  Name = min_compound991.pdb
REMARK  6 active torsions:
REMARK  status: ('A' for Active; 'I' for Inactive)
REMARK    1  A    between atoms: _1  and  _7
REMARK    2  A    between atoms: _1  and  _20
REMARK    3  A    between atoms: _8  and  _20
REMARK    4  A    between atoms: _10  and  _22
REMARK    5  A    between atoms: _15  and  _24
REMARK    6  A    between atoms: _22  and  _24
REMARK                            x       y       z     vdW  Elec       q    Type
REMARK                         _______ _______ _______ _____ _____    ______ ____
ROOT
ATOM      1  C   UNL     1     -13.784   5.444 -17.016  0.00  0.00    +0.073 A 
ATOM      2  C   UNL     1     -14.990   5.870 -16.449  0.00  0.00    +0.016 A 
ATOM      3  C   UNL     1     -15.477   5.240 -15.300  0.00  0.00    +0.001 A 
ATOM      4  C   UNL     1     -14.767   4.186 -14.718  0.00  0.00    +0.001 A 
ATOM      5  C   UNL     1     -13.557   3.767 -15.274  0.00  0.00    +0.016 A 
ATOM      6  C   UNL     1     -13.069   4.402 -16.422  0.00  0.00    +0.073 A 
ENDROOT
BRANCH   6   7
ATOM      7  C   UNL     1     -11.720   4.100 -16.897  0.00  0.00    +0.340 C 
ATOM      8  O   UNL     1     -10.740   4.684 -16.466  0.00  0.00    -0.245 OA
BRANCH   7   9
ATOM      9  O   UNL     1     -11.724   3.089 -17.816  0.00  0.00    -0.458 OA
BRANCH   9  10
ATOM     10  C   UNL     1     -10.901   1.960 -17.289  0.00  0.00    +0.177 C 
ATOM     11  C   UNL     1     -10.958   1.604 -15.739  0.00  0.00    +0.044 C 
ATOM     12  C   UNL     1      -9.871   0.363 -15.517  0.00  0.00    +0.004 C 
ATOM     13  C   UNL     1     -10.644  -0.782 -16.100  0.00  0.00    +0.000 C 
ATOM     14  C   UNL     1     -11.908  -0.382 -16.757  0.00  0.00    +0.004 C 
ATOM     15  C   UNL     1     -11.674   0.814 -17.872  0.00  0.00    +0.044 C 
ENDBRANCH   9  10
ENDBRANCH   7   9
ENDBRANCH   6   7
BRANCH   1  16
ATOM     16  C   UNL     1     -13.353   6.048 -18.293  0.00  0.00    +0.340 C 
ATOM     17  O   UNL     1     -12.505   6.909 -18.416  0.00  0.00    -0.245 OA
BRANCH  16  18
ATOM     18  O   UNL     1     -14.278   5.660 -19.211  0.00  0.00    -0.458 OA
BRANCH  18  19
ATOM     19  C   UNL     1     -13.977   4.545 -20.168  0.00  0.00    +0.177 C 
ATOM     20  C   UNL     1     -13.324   4.843 -21.485  0.00  0.00    +0.044 C 
ATOM     21  C   UNL     1     -13.023   3.729 -22.443  0.00  0.00    +0.004 C 
ATOM     22  C   UNL     1     -13.945   2.458 -22.279  0.00  0.00    +0.000 C 
ATOM     23  C   UNL     1     -14.029   2.017 -20.767  0.00  0.00    +0.004 C 
ATOM     24  C   UNL     1     -14.330   3.132 -19.809  0.00  0.00    +0.044 C 
ENDBRANCH  18  19
ENDBRANCH  16  18
ENDBRANCH   1  16
TORSDOF 6
ENDMDL
MODEL 7
REMARK VINA RESULT:      -7.0      2.703      4.748
REMARK  Name = min_compound991.pdb
REMARK  6 active torsions:
REMARK  status: ('A' for Active; 'I' for Inactive)
REMARK    1  A    between atoms: _1  and  _7
REMARK    2  A    between atoms: _1  and  _20
REMARK    3  A    between atoms: _8  and  _20
REMARK    4  A    between atoms: _10  and  _22
REMARK    5  A    between atoms: _15  and  _24
REMARK    6  A    between atoms: _22  and  _24
REMARK                            x       y       z     vdW  Elec       q    Type
REMARK                         _______ _______ _______ _____ _____    ______ ____
ROOT
ATOM      1  C   UNL     1     -13.755   4.874 -18.436  0.00  0.00    +0.073 A 
ATOM      2  C   UNL     1     -13.920   5.869 -19.406  0.00  0.00    +0.016 A 
ATOM      3  C   UNL     1     -13.054   6.966 -19.428  0.00  0.00    +0.001 A 
ATOM      4  C   UNL     1     -12.028   7.075 -18.485  0.00  0.00    +0.001 A 
ATOM      5  C   UNL     1     -11.853   6.077 -17.525  0.00  0.00    +0.016 A 
ATOM      6  C   UNL     1     -12.719   4.978 -17.506  0.00  0.00    +0.073 A 
ENDROOT
BRANCH   6   7
ATOM      7  C   UNL     1     -12.429   3.843 -16.631  0.00  0.00    +0.340 C 
ATOM      8  O   UNL     1     -12.989   3.699 -15.557  0.00  0.00    -0.245 OA
BRANCH   7   9
ATOM      9  O   UNL     1     -11.516   2.995 -17.191  0.00  0.00    -0.458 OA
BRANCH   9  10
ATOM     10  C   UNL     1     -11.610   1.672 -16.505  0.00  0.00    +0.177 C 
ATOM     11  C   UNL     1     -11.832   0.355 -17.369  0.00  0.00    +0.044 C 
ATOM     12  C   UNL     1     -11.959  -0.892 -16.274  0.00  0.00    +0.004 C 
ATOM     13  C   UNL     1     -10.521  -1.053 -15.878  0.00  0.00    +0.000 C 
ATOM     14  C   UNL     1      -9.625  -0.014 -16.433  0.00  0.00    +0.004 C 
ATOM     15  C   UNL     1     -10.172   1.511 -16.109  0.00  0.00    +0.044 C 
ENDBRANCH   9  10
ENDBRANCH   7   9
ENDBRANCH   6   7
BRANCH   1  16
ATOM     16  C   UNL     1     -14.754   3.789 -18.363  0.00  0.00    +0.340 C 
ATOM     17  O   UNL     1     -15.758   3.798 -17.678  0.00  0.00    -0.245 OA
BRANCH  16  18
ATOM     18  O   UNL     1     -14.176   2.718 -18.969  0.00  0.00    -0.458 OA
BRANCH  18  19
ATOM     19  C   UNL     1     -14.231   2.567 -20.460  0.00  0.00    +0.177 C 
ATOM     20  C   UNL     1     -13.111   1.882 -21.186  0.00  0.00    +0.044 C 
ATOM     21  C   UNL     1     -13.166   1.731 -22.678  0.00  0.00    +0.004 C 
ATOM     22  C   UNL     1     -14.052   2.811 -23.413  0.00  0.00    +0.000 C 
ATOM     23  C   UNL     1     -15.461   2.950 -22.716  0.00  0.00    +0.004 C 
ATOM     24  C   UNL     1     -15.405   3.101 -21.225  0.00  0.00    +0.044 C 
ENDBRANCH  18  19
ENDBRANCH  16  18
ENDBRANCH   1  16
TORSDOF 6
ENDMDL
MODEL 8
REMARK VINA RESULT:      -7.0      2.875      6.008
REMARK  Name = min_compound991.pdb
REMARK  6 active torsions:
REMARK  status: ('A' for Active; 'I' for Inactive)
REMARK    1  A    between atoms: _1  and  _7
REMARK    2  A    between atoms: _1  and  _20
REMARK    3  A    between atoms: _8  and  _20
REMARK    4  A    between atoms: _10  and  _22
REMARK    5  A    between atoms: _15  and  _24
REMARK    6  A    between atoms: _22  and  _24
REMARK                            x       y       z     vdW  Elec       q    Type
REMARK                         _______ _______ _______ _____ _____    ______ ____
ROOT
ATOM      1  C   UNL     1     -13.276   3.877 -16.733  0.00  0.00    +0.073 A 
ATOM      2  C   UNL     1     -13.328   3.516 -15.382  0.00  0.00    +0.016 A 
ATOM      3  C   UNL     1     -14.445   3.858 -14.615  0.00  0.00    +0.001 A 
ATOM      4  C   UNL     1     -15.509   4.559 -15.191  0.00  0.00    +0.001 A 
ATOM      5  C   UNL     1     -15.466   4.909 -16.542  0.00  0.00    +0.016 A 
ATOM      6  C   UNL     1     -14.347   4.563 -17.308  0.00  0.00    +0.073 A 
ENDROOT
BRANCH   6   7
ATOM      7  C   UNL     1     -14.376   4.756 -18.757  0.00  0.00    +0.340 C 
ATOM      8  O   UNL     1     -13.831   5.709 -19.290  0.00  0.00    -0.245 OA
BRANCH   7   9
ATOM      9  O   UNL     1     -15.034   3.740 -19.388  0.00  0.00    -0.458 OA
BRANCH   9  10
ATOM     10  C   UNL     1     -14.446   3.562 -20.750  0.00  0.00    +0.177 C 
ATOM     11  C   UNL     1     -13.610   2.249 -21.079  0.00  0.00    +0.044 C 
ATOM     12  C   UNL     1     -13.061   2.438 -22.639  0.00  0.00    +0.004 C 
ATOM     13  C   UNL     1     -14.323   2.171 -23.405  0.00  0.00    +0.000 C 
ATOM     14  C   UNL     1     -15.523   2.021 -22.552  0.00  0.00    +0.004 C 
ATOM     15  C   UNL     1     -15.708   3.295 -21.516  0.00  0.00    +0.044 C 
ENDBRANCH   9  10
ENDBRANCH   7   9
ENDBRANCH   6   7
BRANCH   1  16
ATOM     16  C   UNL     1     -12.035   3.608 -17.487  0.00  0.00    +0.340 C 
ATOM     17  O   UNL     1     -11.189   4.432 -17.773  0.00  0.00    -0.245 OA
BRANCH  16  18
ATOM     18  O   UNL     1     -12.191   2.365 -18.016  0.00  0.00    -0.458 OA
BRANCH  18  19
ATOM     19  C   UNL     1     -11.415   1.204 -17.471  0.00  0.00    +0.177 C 
ATOM     20  C   UNL     1     -12.128   0.096 -16.753  0.00  0.00    +0.044 C 
ATOM     21  C   UNL     1     -11.352  -1.066 -16.208  0.00  0.00    +0.004 C 
ATOM     22  C   UNL     1      -9.840  -0.750 -15.884  0.00  0.00    +0.000 C 
ATOM     23  C   UNL     1      -9.150  -0.012 -17.097  0.00  0.00    +0.004 C 
ATOM     24  C   UNL     1      -9.926   1.150 -17.642  0.00  0.00    +0.044 C 
ENDBRANCH  18  19
ENDBRANCH  16  18
ENDBRANCH   1  16
TORSDOF 6
ENDMDL
MODEL 9
REMARK VINA RESULT:      -7.0      1.705      6.293
REMARK  Name = min_compound991.pdb
REMARK  6 active torsions:
REMARK  status: ('A' for Active; 'I' for Inactive)
REMARK    1  A    between atoms: _1  and  _7
REMARK    2  A    between atoms: _1  and  _20
REMARK    3  A    between atoms: _8  and  _20
REMARK    4  A    between atoms: _10  and  _22
REMARK    5  A    between atoms: _15  and  _24
REMARK    6  A    between atoms: _22  and  _24
REMARK                            x       y       z     vdW  Elec       q    Type
REMARK                         _______ _______ _______ _____ _____    ______ ____
ROOT
ATOM      1  C   UNL     1     -15.067   2.971 -16.192  0.00  0.00    +0.073 A 
ATOM      2  C   UNL     1     -15.669   2.373 -15.080  0.00  0.00    +0.016 A 
ATOM      3  C   UNL     1     -17.049   2.489 -14.892  0.00  0.00    +0.001 A 
ATOM      4  C   UNL     1     -17.828   3.202 -15.808  0.00  0.00    +0.001 A 
ATOM      5  C   UNL     1     -17.233   3.789 -16.925  0.00  0.00    +0.016 A 
ATOM      6  C   UNL     1     -15.851   3.669 -17.113  0.00  0.00    +0.073 A 
ENDROOT
BRANCH   6   7
ATOM      7  C   UNL     1     -15.250   4.114 -18.369  0.00  0.00    +0.340 C 
ATOM      8  O   UNL     1     -15.253   3.414 -19.369  0.00  0.00    -0.245 OA
BRANCH   7   9
ATOM      9  O   UNL     1     -14.752   5.381 -18.268  0.00  0.00    -0.458 OA
BRANCH   9  10
ATOM     10  C   UNL     1     -13.720   5.576 -19.331  0.00  0.00    +0.177 C 
ATOM     11  C   UNL     1     -13.810   6.844 -20.288  0.00  0.00    +0.044 C 
ATOM     12  C   UNL     1     -12.558   6.684 -21.373  0.00  0.00    +0.004 C 
ATOM     13  C   UNL     1     -11.396   7.065 -20.505  0.00  0.00    +0.000 C 
ATOM     14  C   UNL     1     -11.748   7.258 -19.080  0.00  0.00    +0.004 C 
ATOM     15  C   UNL     1     -12.558   5.958 -18.462  0.00  0.00    +0.044 C 
ENDBRANCH   9  10
ENDBRANCH   7   9
ENDBRANCH   6   7
BRANCH   1  16
ATOM     16  C   UNL     1     -13.594   2.932 -16.303  0.00  0.00    +0.340 C 
ATOM     17  O   UNL     1     -12.831   3.768 -15.861  0.00  0.00    -0.245 OA
BRANCH  16  18
ATOM     18  O   UNL     1     -13.322   1.963 -17.217  0.00  0.00    -0.458 OA
BRANCH  18  19
ATOM     19  C   UNL     1     -12.115   1.087 -17.058  0.00  0.00    +0.177 C 
ATOM     20  C   UNL     1     -12.244  -0.256 -16.402  0.00  0.00    +0.044 C 
ATOM     21  C   UNL     1     -11.037  -1.132 -16.244  0.00  0.00    +0.004 C 
ATOM     22  C   UNL     1      -9.664  -0.355 -16.208  0.00  0.00    +0.000 C 
ATOM     23  C   UNL     1      -9.572   0.677 -17.398  0.00  0.00    +0.004 C 
ATOM     24  C   UNL     1     -10.779   1.553 -17.556  0.00  0.00    +0.044 C 
ENDBRANCH  18  19
ENDBRANCH  16  18
ENDBRANCH   1  16
TORSDOF 6
ENDMDL
