MODEL 1
REMARK VINA RESULT:      -5.5      0.000      0.000
REMARK  Name = min_compound97.pdb
REMARK  4 active torsions:
REMARK  status: ('A' for Active; 'I' for Inactive)
REMARK    1  A    between atoms: _5  and  _12
REMARK    2  A    between atoms: _5  and  _14
REMARK    3  A    between atoms: _9  and  _10
REMARK    4  A    between atoms: _14  and  _15
REMARK                            x       y       z     vdW  Elec       q    Type
REMARK                         _______ _______ _______ _____ _____    ______ ____
ROOT
ATOM      1  C   UNL     1     -13.875   0.009  -6.049  0.00  0.00    +0.074 C 
ATOM      2  C   UNL     1     -14.795  -0.956  -5.915  0.00  0.00    +0.245 C 
ATOM      3  O   UNL     1     -15.912  -0.973  -6.752  0.00  0.00    -0.269 OA
ATOM      4  O   UNL     1     -16.407   0.416  -6.923  0.00  0.00    -0.247 OA
ATOM      5  C   UNL     1     -15.381   1.199  -7.458  0.00  0.00    +0.332 C 
ATOM      6  C   UNL     1     -14.125   1.041  -7.019  0.00  0.00    +0.096 C 
ENDROOT
BRANCH   2   7
ATOM      7  N   UNL     1     -14.622  -1.990  -5.034  0.00  0.00    -0.237 N 
ATOM      8  H   UNL     1     -14.112  -2.798  -5.358  0.00  0.00    +0.159 HD
ATOM      9  C   UNL     1     -14.900  -1.969  -3.695  0.00  0.00    +0.304 C 
ATOM     10  O   UNL     1     -15.302  -1.030  -3.025  0.00  0.00    -0.253 OA
ATOM     11  N   UNL     1     -14.650  -3.173  -3.104  0.00  0.00    -0.313 N 
ATOM     12  H   UNL     1     -14.930  -3.999  -3.613  0.00  0.00    +0.146 HD
ATOM     13  H   UNL     1     -14.924  -3.182  -2.128  0.00  0.00    +0.146 HD
ENDBRANCH   2   7
BRANCH   5  14
ATOM     14  O   UNL     1     -15.688   2.259  -8.285  0.00  0.00    -0.457 OA
BRANCH  14  15
ATOM     15  C   UNL     1     -16.901   2.050  -9.008  0.00  0.00    +0.259 C 
BRANCH  15  16
ATOM     16  C   UNL     1     -16.870   2.933 -10.224  0.00  0.00    +0.006 C 
ATOM     17  C   UNL     1     -16.059   3.987 -10.384  0.00  0.00    +0.007 C 
ENDBRANCH  15  16
ENDBRANCH  14  15
ENDBRANCH   5  14
TORSDOF 4
ENDMDL
MODEL 2
REMARK VINA RESULT:      -5.4     11.402     12.224
REMARK  Name = min_compound97.pdb
REMARK  4 active torsions:
REMARK  status: ('A' for Active; 'I' for Inactive)
REMARK    1  A    between atoms: _5  and  _12
REMARK    2  A    between atoms: _5  and  _14
REMARK    3  A    between atoms: _9  and  _10
REMARK    4  A    between atoms: _14  and  _15
REMARK                            x       y       z     vdW  Elec       q    Type
REMARK                         _______ _______ _______ _____ _____    ______ ____
ROOT
ATOM      1  C   UNL     1     -10.313   3.527 -15.866  0.00  0.00    +0.074 C 
ATOM      2  C   UNL     1     -10.903   2.445 -16.392  0.00  0.00    +0.245 C 
ATOM      3  O   UNL     1     -11.716   2.575 -17.519  0.00  0.00    -0.269 OA
ATOM      4  O   UNL     1     -12.549   3.795 -17.373  0.00  0.00    -0.247 OA
ATOM      5  C   UNL     1     -11.708   4.901 -17.222  0.00  0.00    +0.332 C 
ATOM      6  C   UNL     1     -10.614   4.804 -16.454  0.00  0.00    +0.096 C 
ENDROOT
BRANCH   2   7
ATOM      7  N   UNL     1     -10.651   1.188 -15.910  0.00  0.00    -0.237 N 
ATOM      8  H   UNL     1     -11.236   0.851 -15.161  0.00  0.00    +0.159 HD
ATOM      9  C   UNL     1      -9.813   0.260 -16.465  0.00  0.00    +0.304 C 
ATOM     10  O   UNL     1      -9.175   0.348 -17.502  0.00  0.00    -0.253 OA
ATOM     11  N   UNL     1      -9.754  -0.882 -15.721  0.00  0.00    -0.313 N 
ATOM     12  H   UNL     1      -9.711  -0.773 -14.717  0.00  0.00    +0.146 HD
ATOM     13  H   UNL     1      -9.079  -1.542 -16.090  0.00  0.00    +0.146 HD
ENDBRANCH   2   7
BRANCH   5  14
ATOM     14  O   UNL     1     -12.104   6.134 -17.695  0.00  0.00    -0.457 OA
BRANCH  14  15
ATOM     15  C   UNL     1     -12.422   6.104 -19.086  0.00  0.00    +0.259 C 
BRANCH  15  16
ATOM     16  C   UNL     1     -11.542   7.103 -19.782  0.00  0.00    +0.006 C 
ATOM     17  C   UNL     1     -11.305   7.128 -21.100  0.00  0.00    +0.007 C 
ENDBRANCH  15  16
ENDBRANCH  14  15
ENDBRANCH   5  14
TORSDOF 4
ENDMDL
MODEL 3
REMARK VINA RESULT:      -5.3     11.311     12.962
REMARK  Name = min_compound97.pdb
REMARK  4 active torsions:
REMARK  status: ('A' for Active; 'I' for Inactive)
REMARK    1  A    between atoms: _5  and  _12
REMARK    2  A    between atoms: _5  and  _14
REMARK    3  A    between atoms: _9  and  _10
REMARK    4  A    between atoms: _14  and  _15
REMARK                            x       y       z     vdW  Elec       q    Type
REMARK                         _______ _______ _______ _____ _____    ______ ____
ROOT
ATOM      1  C   UNL     1     -12.961   3.989 -15.923  0.00  0.00    +0.074 C 
ATOM      2  C   UNL     1     -12.841   4.734 -17.030  0.00  0.00    +0.245 C 
ATOM      3  O   UNL     1     -11.936   4.361 -18.024  0.00  0.00    -0.269 OA
ATOM      4  O   UNL     1     -10.681   3.894 -17.384  0.00  0.00    -0.247 OA
ATOM      5  C   UNL     1     -10.977   2.823 -16.537  0.00  0.00    +0.332 C 
ATOM      6  C   UNL     1     -12.081   2.860 -15.779  0.00  0.00    +0.096 C 
ENDROOT
BRANCH   2   7
ATOM      7  N   UNL     1     -13.657   5.811 -17.258  0.00  0.00    -0.237 N 
ATOM      8  H   UNL     1     -14.596   5.768 -16.894  0.00  0.00    +0.159 HD
ATOM      9  C   UNL     1     -13.275   7.024 -17.761  0.00  0.00    +0.304 C 
ATOM     10  O   UNL     1     -12.150   7.396 -18.055  0.00  0.00    -0.253 OA
ATOM     11  N   UNL     1     -14.334   7.872 -17.903  0.00  0.00    -0.313 N 
ATOM     12  H   UNL     1     -15.191   7.479 -18.266  0.00  0.00    +0.146 HD
ATOM     13  H   UNL     1     -14.066   8.745 -18.343  0.00  0.00    +0.146 HD
ENDBRANCH   2   7
BRANCH   5  14
ATOM     14  O   UNL     1     -10.043   1.829 -16.336  0.00  0.00    -0.457 OA
BRANCH  14  15
ATOM     15  C   UNL     1      -9.906   0.975 -17.472  0.00  0.00    +0.259 C 
BRANCH  15  16
ATOM     16  C   UNL     1      -9.435  -0.366 -16.986  0.00  0.00    +0.006 C 
ATOM     17  C   UNL     1      -9.795  -0.929 -15.825  0.00  0.00    +0.007 C 
ENDBRANCH  15  16
ENDBRANCH  14  15
ENDBRANCH   5  14
TORSDOF 4
ENDMDL
MODEL 4
REMARK VINA RESULT:      -5.2     11.407     11.803
REMARK  Name = min_compound97.pdb
REMARK  4 active torsions:
REMARK  status: ('A' for Active; 'I' for Inactive)
REMARK    1  A    between atoms: _5  and  _12
REMARK    2  A    between atoms: _5  and  _14
REMARK    3  A    between atoms: _9  and  _10
REMARK    4  A    between atoms: _14  and  _15
REMARK                            x       y       z     vdW  Elec       q    Type
REMARK                         _______ _______ _______ _____ _____    ______ ____
ROOT
ATOM      1  C   UNL     1     -10.319   3.470 -15.789  0.00  0.00    +0.074 C 
ATOM      2  C   UNL     1     -10.933   2.479 -16.448  0.00  0.00    +0.245 C 
ATOM      3  O   UNL     1     -11.603   2.749 -17.642  0.00  0.00    -0.269 OA
ATOM      4  O   UNL     1     -12.344   4.027 -17.500  0.00  0.00    -0.247 OA
ATOM      5  C   UNL     1     -11.438   5.042 -17.184  0.00  0.00    +0.332 C 
ATOM      6  C   UNL     1     -10.446   4.803 -16.315  0.00  0.00    +0.096 C 
ENDROOT
BRANCH   2   7
ATOM      7  N   UNL     1     -10.839   1.178 -16.031  0.00  0.00    -0.237 N 
ATOM      8  H   UNL     1     -11.572   0.827 -15.434  0.00  0.00    +0.159 HD
ATOM      9  C   UNL     1      -9.958   0.240 -16.494  0.00  0.00    +0.304 C 
ATOM     10  O   UNL     1      -9.130   0.360 -17.383  0.00  0.00    -0.253 OA
ATOM     11  N   UNL     1     -10.098  -0.953 -15.847  0.00  0.00    -0.313 N 
ATOM     12  H   UNL     1     -10.242  -0.918 -14.847  0.00  0.00    +0.146 HD
ATOM     13  H   UNL     1      -9.398  -1.627 -16.136  0.00  0.00    +0.146 HD
ENDBRANCH   2   7
BRANCH   5  14
ATOM     14  O   UNL     1     -11.677   6.332 -17.610  0.00  0.00    -0.457 OA
BRANCH  14  15
ATOM     15  C   UNL     1     -12.833   6.424 -18.441  0.00  0.00    +0.259 C 
BRANCH  15  16
ATOM     16  C   UNL     1     -13.711   7.511 -17.890  0.00  0.00    +0.006 C 
ATOM     17  C   UNL     1     -14.466   7.401 -16.788  0.00  0.00    +0.007 C 
ENDBRANCH  15  16
ENDBRANCH  14  15
ENDBRANCH   5  14
TORSDOF 4
ENDMDL
MODEL 5
REMARK VINA RESULT:      -5.2      9.714     11.989
REMARK  Name = min_compound97.pdb
REMARK  4 active torsions:
REMARK  status: ('A' for Active; 'I' for Inactive)
REMARK    1  A    between atoms: _5  and  _12
REMARK    2  A    between atoms: _5  and  _14
REMARK    3  A    between atoms: _9  and  _10
REMARK    4  A    between atoms: _14  and  _15
REMARK                            x       y       z     vdW  Elec       q    Type
REMARK                         _______ _______ _______ _____ _____    ______ ____
ROOT
ATOM      1  C   UNL     1     -15.558   7.440 -15.745  0.00  0.00    +0.074 C 
ATOM      2  C   UNL     1     -15.523   8.512 -14.941  0.00  0.00    +0.245 C 
ATOM      3  O   UNL     1     -15.451   8.341 -13.558  0.00  0.00    -0.269 OA
ATOM      4  O   UNL     1     -16.349   7.228 -13.162  0.00  0.00    -0.247 OA
ATOM      5  C   UNL     1     -15.959   6.070 -13.838  0.00  0.00    +0.332 C 
ATOM      6  C   UNL     1     -15.595   6.142 -15.126  0.00  0.00    +0.096 C 
ENDROOT
BRANCH   2   7
ATOM      7  N   UNL     1     -15.459   9.782 -15.448  0.00  0.00    -0.237 N 
ATOM      8  H   UNL     1     -14.794   9.957 -16.185  0.00  0.00    +0.159 HD
ATOM      9  C   UNL     1     -16.338  10.800 -15.196  0.00  0.00    +0.304 C 
ATOM     10  O   UNL     1     -17.356  10.765 -14.523  0.00  0.00    -0.253 OA
ATOM     11  N   UNL     1     -15.974  11.954 -15.826  0.00  0.00    -0.313 N 
ATOM     12  H   UNL     1     -14.992  12.190 -15.819  0.00  0.00    +0.146 HD
ATOM     13  H   UNL     1     -16.582  12.728 -15.582  0.00  0.00    +0.146 HD
ENDBRANCH   2   7
BRANCH   5  14
ATOM     14  O   UNL     1     -16.135   4.837 -13.246  0.00  0.00    -0.457 OA
BRANCH  14  15
ATOM     15  C   UNL     1     -17.184   4.086 -13.856  0.00  0.00    +0.259 C 
BRANCH  15  16
ATOM     16  C   UNL     1     -16.728   2.659 -13.962  0.00  0.00    +0.006 C 
ATOM     17  C   UNL     1     -16.100   2.133 -15.022  0.00  0.00    +0.007 C 
ENDBRANCH  15  16
ENDBRANCH  14  15
ENDBRANCH   5  14
TORSDOF 4
ENDMDL
MODEL 6
REMARK VINA RESULT:      -5.1      9.402     10.653
REMARK  Name = min_compound97.pdb
REMARK  4 active torsions:
REMARK  status: ('A' for Active; 'I' for Inactive)
REMARK    1  A    between atoms: _5  and  _12
REMARK    2  A    between atoms: _5  and  _14
REMARK    3  A    between atoms: _9  and  _10
REMARK    4  A    between atoms: _14  and  _15
REMARK                            x       y       z     vdW  Elec       q    Type
REMARK                         _______ _______ _______ _____ _____    ______ ____
ROOT
ATOM      1  C   UNL     1     -11.513   2.556 -15.861  0.00  0.00    +0.074 C 
ATOM      2  C   UNL     1     -11.716   1.854 -16.984  0.00  0.00    +0.245 C 
ATOM      3  O   UNL     1     -12.844   2.104 -17.766  0.00  0.00    -0.269 OA
ATOM      4  O   UNL     1     -14.014   2.305 -16.874  0.00  0.00    -0.247 OA
ATOM      5  C   UNL     1     -13.746   3.371 -16.012  0.00  0.00    +0.332 C 
ATOM      6  C   UNL     1     -12.527   3.499 -15.470  0.00  0.00    +0.096 C 
ENDROOT
BRANCH   2   7
ATOM      7  N   UNL     1     -10.789   0.955 -17.441  0.00  0.00    -0.237 N 
ATOM      8  H   UNL     1      -9.999   1.320 -17.951  0.00  0.00    +0.159 HD
ATOM      9  C   UNL     1     -10.717  -0.371 -17.114  0.00  0.00    +0.304 C 
ATOM     10  O   UNL     1     -11.419  -0.992 -16.331  0.00  0.00    -0.253 OA
ATOM     11  N   UNL     1      -9.699  -1.002 -17.767  0.00  0.00    -0.313 N 
ATOM     12  H   UNL     1      -9.563  -0.765 -18.740  0.00  0.00    +0.146 HD
ATOM     13  H   UNL     1      -9.689  -1.998 -17.584  0.00  0.00    +0.146 HD
ENDBRANCH   2   7
BRANCH   5  14
ATOM     14  O   UNL     1     -14.778   4.170 -15.567  0.00  0.00    -0.457 OA
BRANCH  14  15
ATOM     15  C   UNL     1     -15.114   3.914 -14.203  0.00  0.00    +0.259 C 
BRANCH  15  16
ATOM     16  C   UNL     1     -16.227   2.906 -14.183  0.00  0.00    +0.006 C 
ATOM     17  C   UNL     1     -17.110   2.759 -13.186  0.00  0.00    +0.007 C 
ENDBRANCH  15  16
ENDBRANCH  14  15
ENDBRANCH   5  14
TORSDOF 4
ENDMDL
MODEL 7
REMARK VINA RESULT:      -4.9      2.303      3.179
REMARK  Name = min_compound97.pdb
REMARK  4 active torsions:
REMARK  status: ('A' for Active; 'I' for Inactive)
REMARK    1  A    between atoms: _5  and  _12
REMARK    2  A    between atoms: _5  and  _14
REMARK    3  A    between atoms: _9  and  _10
REMARK    4  A    between atoms: _14  and  _15
REMARK                            x       y       z     vdW  Elec       q    Type
REMARK                         _______ _______ _______ _____ _____    ______ ____
ROOT
ATOM      1  C   UNL     1     -14.087   0.128  -3.190  0.00  0.00    +0.074 C 
ATOM      2  C   UNL     1     -14.384  -1.153  -2.930  0.00  0.00    +0.245 C 
ATOM      3  O   UNL     1     -14.409  -2.086  -3.967  0.00  0.00    -0.269 OA
ATOM      4  O   UNL     1     -15.052  -1.470  -5.154  0.00  0.00    -0.247 OA
ATOM      5  C   UNL     1     -14.336  -0.326  -5.515  0.00  0.00    +0.332 C 
ATOM      6  C   UNL     1     -13.876   0.499  -4.564  0.00  0.00    +0.096 C 
ENDROOT
BRANCH   2   7
ATOM      7  N   UNL     1     -14.574  -1.595  -1.647  0.00  0.00    -0.237 N 
ATOM      8  H   UNL     1     -13.811  -1.480  -0.997  0.00  0.00    +0.159 HD
ATOM      9  C   UNL     1     -15.759  -2.003  -1.098  0.00  0.00    +0.304 C 
ATOM     10  O   UNL     1     -16.865  -2.008  -1.615  0.00  0.00    -0.253 OA
ATOM     11  N   UNL     1     -15.605  -2.419   0.192  0.00  0.00    -0.313 N 
ATOM     12  H   UNL     1     -14.791  -2.981   0.398  0.00  0.00    +0.146 HD
ATOM     13  H   UNL     1     -16.466  -2.790   0.577  0.00  0.00    +0.146 HD
ENDBRANCH   2   7
BRANCH   5  14
ATOM     14  O   UNL     1     -14.272   0.054  -6.839  0.00  0.00    -0.457 OA
BRANCH  14  15
ATOM     15  C   UNL     1     -15.102   1.181  -7.121  0.00  0.00    +0.259 C 
BRANCH  15  16
ATOM     16  C   UNL     1     -16.392   0.669  -7.697  0.00  0.00    +0.006 C 
ATOM     17  C   UNL     1     -16.573  -0.561  -8.197  0.00  0.00    +0.007 C 
ENDBRANCH  15  16
ENDBRANCH  14  15
ENDBRANCH   5  14
TORSDOF 4
ENDMDL
MODEL 8
REMARK VINA RESULT:      -4.9     10.694     11.358
REMARK  Name = min_compound97.pdb
REMARK  4 active torsions:
REMARK  status: ('A' for Active; 'I' for Inactive)
REMARK    1  A    between atoms: _5  and  _12
REMARK    2  A    between atoms: _5  and  _14
REMARK    3  A    between atoms: _9  and  _10
REMARK    4  A    between atoms: _14  and  _15
REMARK                            x       y       z     vdW  Elec       q    Type
REMARK                         _______ _______ _______ _____ _____    ______ ____
ROOT
ATOM      1  C   UNL     1     -12.201   1.489 -18.454  0.00  0.00    +0.074 C 
ATOM      2  C   UNL     1     -12.153   0.953 -17.227  0.00  0.00    +0.245 C 
ATOM      3  O   UNL     1     -13.080   1.347 -16.261  0.00  0.00    -0.269 OA
ATOM      4  O   UNL     1     -13.276   2.816 -16.351  0.00  0.00    -0.247 OA
ATOM      5  C   UNL     1     -13.716   3.135 -17.637  0.00  0.00    +0.332 C 
ATOM      6  C   UNL     1     -13.177   2.518 -18.698  0.00  0.00    +0.096 C 
ENDROOT
BRANCH   2   7
ATOM      7  N   UNL     1     -11.273  -0.049 -16.919  0.00  0.00    -0.237 N 
ATOM      8  H   UNL     1     -11.278  -0.870 -17.505  0.00  0.00    +0.159 HD
ATOM      9  C   UNL     1     -10.249   0.022 -16.015  0.00  0.00    +0.304 C 
ATOM     10  O   UNL     1      -9.895   0.985 -15.353  0.00  0.00    -0.253 OA
ATOM     11  N   UNL     1      -9.577  -1.161 -15.913  0.00  0.00    -0.313 N 
ATOM     12  H   UNL     1     -10.133  -2.005 -15.905  0.00  0.00    +0.146 HD
ATOM     13  H   UNL     1      -8.866  -1.134 -15.192  0.00  0.00    +0.146 HD
ENDBRANCH   2   7
BRANCH   5  14
ATOM     14  O   UNL     1     -14.554   4.213 -17.828  0.00  0.00    -0.457 OA
BRANCH  14  15
ATOM     15  C   UNL     1     -14.176   5.341 -17.038  0.00  0.00    +0.259 C 
BRANCH  15  16
ATOM     16  C   UNL     1     -13.350   6.252 -17.901  0.00  0.00    +0.006 C 
ATOM     17  C   UNL     1     -12.036   6.466 -17.752  0.00  0.00    +0.007 C 
ENDBRANCH  15  16
ENDBRANCH  14  15
ENDBRANCH   5  14
TORSDOF 4
ENDMDL
MODEL 9
REMARK VINA RESULT:      -4.9      2.657      6.357
REMARK  Name = min_compound97.pdb
REMARK  4 active torsions:
REMARK  status: ('A' for Active; 'I' for Inactive)
REMARK    1  A    between atoms: _5  and  _12
REMARK    2  A    between atoms: _5  and  _14
REMARK    3  A    between atoms: _9  and  _10
REMARK    4  A    between atoms: _14  and  _15
REMARK                            x       y       z     vdW  Elec       q    Type
REMARK                         _______ _______ _______ _____ _____    ______ ____
ROOT
ATOM      1  C   UNL     1     -14.396   1.156  -5.669  0.00  0.00    +0.074 C 
ATOM      2  C   UNL     1     -14.900   0.805  -6.860  0.00  0.00    +0.245 C 
ATOM      3  O   UNL     1     -15.497  -0.446  -7.021  0.00  0.00    -0.269 OA
ATOM      4  O   UNL     1     -14.688  -1.462  -6.304  0.00  0.00    -0.247 OA
ATOM      5  C   UNL     1     -14.606  -1.106  -4.956  0.00  0.00    +0.332 C 
ATOM      6  C   UNL     1     -14.428   0.177  -4.615  0.00  0.00    +0.096 C 
ENDROOT
BRANCH   2   7
ATOM      7  N   UNL     1     -14.933   1.685  -7.909  0.00  0.00    -0.237 N 
ATOM      8  H   UNL     1     -14.121   1.730  -8.505  0.00  0.00    +0.159 HD
ATOM      9  C   UNL     1     -16.028   2.375  -8.353  0.00  0.00    +0.304 C 
ATOM     10  O   UNL     1     -17.176   2.309  -7.943  0.00  0.00    -0.253 OA
ATOM     11  N   UNL     1     -15.721   3.199  -9.397  0.00  0.00    -0.313 N 
ATOM     12  H   UNL     1     -14.854   3.714  -9.334  0.00  0.00    +0.146 HD
ATOM     13  H   UNL     1     -16.512   3.765  -9.680  0.00  0.00    +0.146 HD
ENDBRANCH   2   7
BRANCH   5  14
ATOM     14  O   UNL     1     -14.512  -2.088  -3.992  0.00  0.00    -0.457 OA
BRANCH  14  15
ATOM     15  C   UNL     1     -14.472  -1.550  -2.670  0.00  0.00    +0.259 C 
BRANCH  15  16
ATOM     16  C   UNL     1     -14.521  -2.699  -1.704  0.00  0.00    +0.006 C 
ATOM     17  C   UNL     1     -13.537  -3.589  -1.521  0.00  0.00    +0.007 C 
ENDBRANCH  15  16
ENDBRANCH  14  15
ENDBRANCH   5  14
TORSDOF 4
ENDMDL
