MODEL 1
REMARK VINA RESULT:      -7.6      0.000      0.000
REMARK  Name = min_compound960.pdb
REMARK  4 active torsions:
REMARK  status: ('A' for Active; 'I' for Inactive)
REMARK    1  A    between atoms: _1  and  _11
REMARK    2  A    between atoms: _9  and  _14
REMARK    3  A    between atoms: _10  and  _13
REMARK    4  A    between atoms: _11  and  _12
REMARK                            x       y       z     vdW  Elec       q    Type
REMARK                         _______ _______ _______ _____ _____    ______ ____
ROOT
ATOM      1  C   UNL     1     -13.433   7.000 -17.698  0.00  0.00    +0.096 A 
ATOM      2  N   UNL     1     -12.294   7.580 -18.111  0.00  0.00    -0.082 NA
ATOM      3  O   UNL     1     -11.321   6.598 -18.063  0.00  0.00    -0.354 OA
ATOM      4  C   UNL     1     -11.866   5.432 -17.622  0.00  0.00    +0.175 A 
ATOM      5  C   UNL     1     -11.216   4.196 -17.437  0.00  0.00    +0.076 A 
ATOM      6  C   UNL     1     -11.972   3.181 -16.971  0.00  0.00    +0.055 A 
ATOM      7  N   UNL     1     -13.343   3.338 -16.685  0.00  0.00    -0.310 N 
ATOM      8  C   UNL     1     -14.109   2.225 -16.133  0.00  0.00    +0.152 C 
ATOM      9  C   UNL     1     -14.034   4.558 -16.900  0.00  0.00    +0.264 A 
ATOM     10  O   UNL     1     -15.236   4.703 -16.701  0.00  0.00    -0.267 OA
ATOM     11  C   UNL     1     -13.206   5.643 -17.379  0.00  0.00    +0.109 A 
ENDROOT
BRANCH   6  12
ATOM     12  C   UNL     1     -11.310   1.876 -16.791  0.00  0.00    -0.001 A 
ATOM     13  C   UNL     1     -11.345   0.926 -17.822  0.00  0.00    +0.010 A 
ATOM     14  C   UNL     1     -10.708  -0.306 -17.665  0.00  0.00    +0.001 A 
ATOM     15  C   UNL     1     -10.034  -0.598 -16.480  0.00  0.00    +0.000 A 
ATOM     16  C   UNL     1      -9.994   0.342 -15.451  0.00  0.00    +0.001 A 
ATOM     17  C   UNL     1     -10.624   1.580 -15.607  0.00  0.00    +0.010 A 
ENDBRANCH   6  12
BRANCH   1  18
ATOM     18  C   UNL     1     -14.687   7.809 -17.674  0.00  0.00    +0.056 C 
ATOM     19  C   UNL     1     -15.095   8.304 -16.295  0.00  0.00    +0.010 C 
ENDBRANCH   1  18
TORSDOF 2
ENDMDL
MODEL 2
REMARK VINA RESULT:      -6.8      2.092      2.631
REMARK  Name = min_compound960.pdb
REMARK  4 active torsions:
REMARK  status: ('A' for Active; 'I' for Inactive)
REMARK    1  A    between atoms: _1  and  _11
REMARK    2  A    between atoms: _9  and  _14
REMARK    3  A    between atoms: _10  and  _13
REMARK    4  A    between atoms: _11  and  _12
REMARK                            x       y       z     vdW  Elec       q    Type
REMARK                         _______ _______ _______ _____ _____    ______ ____
ROOT
ATOM      1  C   UNL     1     -15.116   4.844 -19.307  0.00  0.00    +0.096 A 
ATOM      2  N   UNL     1     -15.316   4.270 -20.505  0.00  0.00    -0.082 NA
ATOM      3  O   UNL     1     -14.525   3.136 -20.527  0.00  0.00    -0.354 OA
ATOM      4  C   UNL     1     -13.849   3.024 -19.352  0.00  0.00    +0.175 A 
ATOM      5  C   UNL     1     -12.947   2.010 -18.972  0.00  0.00    +0.076 A 
ATOM      6  C   UNL     1     -12.387   2.127 -17.752  0.00  0.00    +0.055 A 
ATOM      7  N   UNL     1     -12.686   3.202 -16.890  0.00  0.00    -0.310 N 
ATOM      8  C   UNL     1     -12.015   3.315 -15.599  0.00  0.00    +0.152 C 
ATOM      9  C   UNL     1     -13.620   4.215 -17.227  0.00  0.00    +0.264 A 
ATOM     10  O   UNL     1     -13.929   5.133 -16.474  0.00  0.00    -0.267 OA
ATOM     11  C   UNL     1     -14.196   4.087 -18.547  0.00  0.00    +0.109 A 
ENDROOT
BRANCH   6  12
ATOM     12  C   UNL     1     -11.456   1.064 -17.333  0.00  0.00    -0.001 A 
ATOM     13  C   UNL     1     -10.087   1.184 -17.614  0.00  0.00    +0.010 A 
ATOM     14  C   UNL     1      -9.196   0.188 -17.208  0.00  0.00    +0.001 A 
ATOM     15  C   UNL     1      -9.665  -0.931 -16.521  0.00  0.00    +0.000 A 
ATOM     16  C   UNL     1     -11.024  -1.056 -16.238  0.00  0.00    +0.001 A 
ATOM     17  C   UNL     1     -11.918  -0.059 -16.636  0.00  0.00    +0.010 A 
ENDBRANCH   6  12
BRANCH   1  18
ATOM     18  C   UNL     1     -15.870   6.086 -18.968  0.00  0.00    +0.056 C 
ATOM     19  C   UNL     1     -15.048   7.364 -19.033  0.00  0.00    +0.010 C 
ENDBRANCH   1  18
TORSDOF 2
ENDMDL
MODEL 3
REMARK VINA RESULT:      -6.7      1.273      2.820
REMARK  Name = min_compound960.pdb
REMARK  4 active torsions:
REMARK  status: ('A' for Active; 'I' for Inactive)
REMARK    1  A    between atoms: _1  and  _11
REMARK    2  A    between atoms: _9  and  _14
REMARK    3  A    between atoms: _10  and  _13
REMARK    4  A    between atoms: _11  and  _12
REMARK                            x       y       z     vdW  Elec       q    Type
REMARK                         _______ _______ _______ _____ _____    ______ ____
ROOT
ATOM      1  C   UNL     1     -15.397   5.624 -16.872  0.00  0.00    +0.096 A 
ATOM      2  N   UNL     1     -16.475   4.866 -16.609  0.00  0.00    -0.082 NA
ATOM      3  O   UNL     1     -16.008   3.573 -16.451  0.00  0.00    -0.354 OA
ATOM      4  C   UNL     1     -14.659   3.548 -16.621  0.00  0.00    +0.175 A 
ATOM      5  C   UNL     1     -13.803   2.431 -16.538  0.00  0.00    +0.076 A 
ATOM      6  C   UNL     1     -12.493   2.658 -16.762  0.00  0.00    +0.055 A 
ATOM      7  N   UNL     1     -11.995   3.942 -17.060  0.00  0.00    -0.310 N 
ATOM      8  C   UNL     1     -10.576   4.130 -17.347  0.00  0.00    +0.152 C 
ATOM      9  C   UNL     1     -12.825   5.091 -17.110  0.00  0.00    +0.264 A 
ATOM     10  O   UNL     1     -12.405   6.224 -17.321  0.00  0.00    -0.267 OA
ATOM     11  C   UNL     1     -14.230   4.830 -16.888  0.00  0.00    +0.109 A 
ENDROOT
BRANCH   6  12
ATOM     12  C   UNL     1     -11.583   1.503 -16.659  0.00  0.00    -0.001 A 
ATOM     13  C   UNL     1     -10.779   1.345 -15.521  0.00  0.00    +0.010 A 
ATOM     14  C   UNL     1      -9.925   0.246 -15.410  0.00  0.00    +0.001 A 
ATOM     15  C   UNL     1      -9.869  -0.701 -16.432  0.00  0.00    +0.000 A 
ATOM     16  C   UNL     1     -10.666  -0.552 -17.565  0.00  0.00    +0.001 A 
ATOM     17  C   UNL     1     -11.528   0.544 -17.678  0.00  0.00    +0.010 A 
ENDBRANCH   6  12
BRANCH   1  18
ATOM     18  C   UNL     1     -15.578   7.094 -17.058  0.00  0.00    +0.056 C 
ATOM     19  C   UNL     1     -15.124   7.943 -15.881  0.00  0.00    +0.010 C 
ENDBRANCH   1  18
TORSDOF 2
ENDMDL
MODEL 4
REMARK VINA RESULT:      -6.4      2.193      6.373
REMARK  Name = min_compound960.pdb
REMARK  4 active torsions:
REMARK  status: ('A' for Active; 'I' for Inactive)
REMARK    1  A    between atoms: _1  and  _11
REMARK    2  A    between atoms: _9  and  _14
REMARK    3  A    between atoms: _10  and  _13
REMARK    4  A    between atoms: _11  and  _12
REMARK                            x       y       z     vdW  Elec       q    Type
REMARK                         _______ _______ _______ _____ _____    ______ ____
ROOT
ATOM      1  C   UNL     1     -11.054   0.994 -16.786  0.00  0.00    +0.096 A 
ATOM      2  N   UNL     1     -10.518   1.193 -15.570  0.00  0.00    -0.082 NA
ATOM      3  O   UNL     1     -11.031   2.394 -15.114  0.00  0.00    -0.354 OA
ATOM      4  C   UNL     1     -11.869   2.920 -16.047  0.00  0.00    +0.175 A 
ATOM      5  C   UNL     1     -12.594   4.126 -15.968  0.00  0.00    +0.076 A 
ATOM      6  C   UNL     1     -13.352   4.444 -17.037  0.00  0.00    +0.055 A 
ATOM      7  N   UNL     1     -13.425   3.618 -18.177  0.00  0.00    -0.310 N 
ATOM      8  C   UNL     1     -14.217   4.030 -19.331  0.00  0.00    +0.152 C 
ATOM      9  C   UNL     1     -12.739   2.380 -18.269  0.00  0.00    +0.264 A 
ATOM     10  O   UNL     1     -12.824   1.625 -19.232  0.00  0.00    -0.267 OA
ATOM     11  C   UNL     1     -11.914   2.062 -17.124  0.00  0.00    +0.109 A 
ENDROOT
BRANCH   6  12
ATOM     12  C   UNL     1     -14.132   5.692 -16.961  0.00  0.00    -0.001 A 
ATOM     13  C   UNL     1     -15.395   5.691 -16.351  0.00  0.00    +0.010 A 
ATOM     14  C   UNL     1     -16.134   6.872 -16.262  0.00  0.00    +0.001 A 
ATOM     15  C   UNL     1     -15.619   8.060 -16.780  0.00  0.00    +0.000 A 
ATOM     16  C   UNL     1     -14.364   8.068 -17.387  0.00  0.00    +0.001 A 
ATOM     17  C   UNL     1     -13.618   6.889 -17.472  0.00  0.00    +0.010 A 
ENDBRANCH   6  12
BRANCH   1  18
ATOM     18  C   UNL     1     -10.714  -0.255 -17.528  0.00  0.00    +0.056 C 
ATOM     19  C   UNL     1      -9.568  -1.056 -16.928  0.00  0.00    +0.010 C 
ENDBRANCH   1  18
TORSDOF 2
ENDMDL
MODEL 5
REMARK VINA RESULT:      -6.4      2.199      3.433
REMARK  Name = min_compound960.pdb
REMARK  4 active torsions:
REMARK  status: ('A' for Active; 'I' for Inactive)
REMARK    1  A    between atoms: _1  and  _11
REMARK    2  A    between atoms: _9  and  _14
REMARK    3  A    between atoms: _10  and  _13
REMARK    4  A    between atoms: _11  and  _12
REMARK                            x       y       z     vdW  Elec       q    Type
REMARK                         _______ _______ _______ _____ _____    ______ ____
ROOT
ATOM      1  C   UNL     1     -16.231   6.486 -14.687  0.00  0.00    +0.096 A 
ATOM      2  N   UNL     1     -16.691   5.931 -13.554  0.00  0.00    -0.082 NA
ATOM      3  O   UNL     1     -16.003   4.742 -13.398  0.00  0.00    -0.354 OA
ATOM      4  C   UNL     1     -15.134   4.575 -14.432  0.00  0.00    +0.175 A 
ATOM      5  C   UNL     1     -14.247   3.501 -14.644  0.00  0.00    +0.076 A 
ATOM      6  C   UNL     1     -13.492   3.555 -15.759  0.00  0.00    +0.055 A 
ATOM      7  N   UNL     1     -13.573   4.628 -16.669  0.00  0.00    -0.310 N 
ATOM      8  C   UNL     1     -12.773   4.617 -17.889  0.00  0.00    +0.152 C 
ATOM      9  C   UNL     1     -14.426   5.743 -16.462  0.00  0.00    +0.264 A 
ATOM     10  O   UNL     1     -14.479   6.708 -17.216  0.00  0.00    -0.267 OA
ATOM     11  C   UNL     1     -15.245   5.661 -15.273  0.00  0.00    +0.109 A 
ENDROOT
BRANCH   6  12
ATOM     12  C   UNL     1     -12.545   2.447 -15.985  0.00  0.00    -0.001 A 
ATOM     13  C   UNL     1     -11.234   2.537 -15.495  0.00  0.00    +0.010 A 
ATOM     14  C   UNL     1     -10.336   1.486 -15.692  0.00  0.00    +0.001 A 
ATOM     15  C   UNL     1     -10.740   0.342 -16.378  0.00  0.00    +0.000 A 
ATOM     16  C   UNL     1     -12.042   0.245 -16.867  0.00  0.00    +0.001 A 
ATOM     17  C   UNL     1     -12.946   1.292 -16.666  0.00  0.00    +0.010 A 
ENDBRANCH   6  12
BRANCH   1  18
ATOM     18  C   UNL     1     -16.766   7.814 -15.109  0.00  0.00    +0.056 C 
ATOM     19  C   UNL     1     -15.874   8.996 -14.760  0.00  0.00    +0.010 C 
ENDBRANCH   1  18
TORSDOF 2
ENDMDL
MODEL 6
REMARK VINA RESULT:      -6.2      2.603      3.035
REMARK  Name = min_compound960.pdb
REMARK  4 active torsions:
REMARK  status: ('A' for Active; 'I' for Inactive)
REMARK    1  A    between atoms: _1  and  _11
REMARK    2  A    between atoms: _9  and  _14
REMARK    3  A    between atoms: _10  and  _13
REMARK    4  A    between atoms: _11  and  _12
REMARK                            x       y       z     vdW  Elec       q    Type
REMARK                         _______ _______ _______ _____ _____    ______ ____
ROOT
ATOM      1  C   UNL     1     -16.339   4.830 -17.115  0.00  0.00    +0.096 A 
ATOM      2  N   UNL     1     -16.421   4.989 -15.783  0.00  0.00    -0.082 NA
ATOM      3  O   UNL     1     -15.421   4.204 -15.238  0.00  0.00    -0.354 OA
ATOM      4  C   UNL     1     -14.740   3.572 -16.232  0.00  0.00    +0.175 A 
ATOM      5  C   UNL     1     -13.650   2.688 -16.100  0.00  0.00    +0.076 A 
ATOM      6  C   UNL     1     -13.151   2.173 -17.241  0.00  0.00    +0.055 A 
ATOM      7  N   UNL     1     -13.681   2.497 -18.506  0.00  0.00    -0.310 N 
ATOM      8  C   UNL     1     -13.142   1.873 -19.709  0.00  0.00    +0.152 C 
ATOM      9  C   UNL     1     -14.751   3.414 -18.673  0.00  0.00    +0.264 A 
ATOM     10  O   UNL     1     -15.197   3.745 -19.767  0.00  0.00    -0.267 OA
ATOM     11  C   UNL     1     -15.290   3.942 -17.440  0.00  0.00    +0.109 A 
ENDROOT
BRANCH   6  12
ATOM     12  C   UNL     1     -11.998   1.263 -17.119  0.00  0.00    -0.001 A 
ATOM     13  C   UNL     1     -10.709   1.722 -17.428  0.00  0.00    +0.010 A 
ATOM     14  C   UNL     1      -9.610   0.871 -17.302  0.00  0.00    +0.001 A 
ATOM     15  C   UNL     1      -9.789  -0.442 -16.868  0.00  0.00    +0.000 A 
ATOM     16  C   UNL     1     -11.067  -0.906 -16.558  0.00  0.00    +0.001 A 
ATOM     17  C   UNL     1     -12.169  -0.054 -16.677  0.00  0.00    +0.010 A 
ENDBRANCH   6  12
BRANCH   1  18
ATOM     18  C   UNL     1     -17.279   5.590 -17.990  0.00  0.00    +0.056 C 
ATOM     19  C   UNL     1     -17.165   7.102 -17.880  0.00  0.00    +0.010 C 
ENDBRANCH   1  18
TORSDOF 2
ENDMDL
MODEL 7
REMARK VINA RESULT:      -6.2      1.559      2.202
REMARK  Name = min_compound960.pdb
REMARK  4 active torsions:
REMARK  status: ('A' for Active; 'I' for Inactive)
REMARK    1  A    between atoms: _1  and  _11
REMARK    2  A    between atoms: _9  and  _14
REMARK    3  A    between atoms: _10  and  _13
REMARK    4  A    between atoms: _11  and  _12
REMARK                            x       y       z     vdW  Elec       q    Type
REMARK                         _______ _______ _______ _____ _____    ______ ____
ROOT
ATOM      1  C   UNL     1     -15.151   7.869 -16.834  0.00  0.00    +0.096 A 
ATOM      2  N   UNL     1     -14.350   8.396 -17.776  0.00  0.00    -0.082 NA
ATOM      3  O   UNL     1     -13.391   7.437 -18.047  0.00  0.00    -0.354 OA
ATOM      4  C   UNL     1     -13.608   6.338 -17.274  0.00  0.00    +0.175 A 
ATOM      5  C   UNL     1     -12.861   5.144 -17.250  0.00  0.00    +0.076 A 
ATOM      6  C   UNL     1     -13.266   4.197 -16.380  0.00  0.00    +0.055 A 
ATOM      7  N   UNL     1     -14.381   4.382 -15.537  0.00  0.00    -0.310 N 
ATOM      8  C   UNL     1     -14.750   3.350 -14.573  0.00  0.00    +0.152 C 
ATOM      9  C   UNL     1     -15.176   5.556 -15.567  0.00  0.00    +0.264 A 
ATOM     10  O   UNL     1     -16.175   5.718 -14.875  0.00  0.00    -0.267 OA
ATOM     11  C   UNL     1     -14.717   6.570 -16.490  0.00  0.00    +0.109 A 
ENDROOT
BRANCH   6  12
ATOM     12  C   UNL     1     -12.507   2.934 -16.357  0.00  0.00    -0.001 A 
ATOM     13  C   UNL     1     -11.335   2.837 -15.593  0.00  0.00    +0.010 A 
ATOM     14  C   UNL     1     -10.617   1.640 -15.554  0.00  0.00    +0.001 A 
ATOM     15  C   UNL     1     -11.064   0.534 -16.276  0.00  0.00    +0.000 A 
ATOM     16  C   UNL     1     -12.228   0.623 -17.038  0.00  0.00    +0.001 A 
ATOM     17  C   UNL     1     -12.953   1.818 -17.074  0.00  0.00    +0.010 A 
ENDBRANCH   6  12
BRANCH   1  18
ATOM     18  C   UNL     1     -16.318   8.666 -16.354  0.00  0.00    +0.056 C 
ATOM     19  C   UNL     1     -16.116   9.334 -15.003  0.00  0.00    +0.010 C 
ENDBRANCH   1  18
TORSDOF 2
ENDMDL
MODEL 8
REMARK VINA RESULT:      -6.2      2.026      6.622
REMARK  Name = min_compound960.pdb
REMARK  4 active torsions:
REMARK  status: ('A' for Active; 'I' for Inactive)
REMARK    1  A    between atoms: _1  and  _11
REMARK    2  A    between atoms: _9  and  _14
REMARK    3  A    between atoms: _10  and  _13
REMARK    4  A    between atoms: _11  and  _12
REMARK                            x       y       z     vdW  Elec       q    Type
REMARK                         _______ _______ _______ _____ _____    ______ ____
ROOT
ATOM      1  C   UNL     1     -11.618   0.049 -16.763  0.00  0.00    +0.096 A 
ATOM      2  N   UNL     1     -12.716  -0.662 -16.457  0.00  0.00    -0.082 NA
ATOM      3  O   UNL     1     -13.727   0.259 -16.247  0.00  0.00    -0.354 OA
ATOM      4  C   UNL     1     -13.244   1.519 -16.422  0.00  0.00    +0.175 A 
ATOM      5  C   UNL     1     -13.950   2.733 -16.305  0.00  0.00    +0.076 A 
ATOM      6  C   UNL     1     -13.243   3.862 -16.512  0.00  0.00    +0.055 A 
ATOM      7  N   UNL     1     -11.871   3.841 -16.832  0.00  0.00    -0.310 N 
ATOM      8  C   UNL     1     -11.136   5.090 -16.995  0.00  0.00    +0.152 C 
ATOM      9  C   UNL     1     -11.144   2.634 -16.996  0.00  0.00    +0.264 A 
ATOM     10  O   UNL     1      -9.961   2.591 -17.320  0.00  0.00    -0.267 OA
ATOM     11  C   UNL     1     -11.909   1.431 -16.751  0.00  0.00    +0.109 A 
ENDROOT
BRANCH   6  12
ATOM     12  C   UNL     1     -13.972   5.140 -16.413  0.00  0.00    -0.001 A 
ATOM     13  C   UNL     1     -14.876   5.349 -15.360  0.00  0.00    +0.010 A 
ATOM     14  C   UNL     1     -15.560   6.561 -15.251  0.00  0.00    +0.001 A 
ATOM     15  C   UNL     1     -15.346   7.571 -16.189  0.00  0.00    +0.000 A 
ATOM     16  C   UNL     1     -14.449   7.370 -17.237  0.00  0.00    +0.001 A 
ATOM     17  C   UNL     1     -13.757   6.161 -17.346  0.00  0.00    +0.010 A 
ENDBRANCH   6  12
BRANCH   1  18
ATOM     18  C   UNL     1     -10.354  -0.678 -17.081  0.00  0.00    +0.056 C 
ATOM     19  C   UNL     1      -9.520  -1.059 -15.868  0.00  0.00    +0.010 C 
ENDBRANCH   1  18
TORSDOF 2
ENDMDL
MODEL 9
REMARK VINA RESULT:      -6.2     10.476     12.746
REMARK  Name = min_compound960.pdb
REMARK  4 active torsions:
REMARK  status: ('A' for Active; 'I' for Inactive)
REMARK    1  A    between atoms: _1  and  _11
REMARK    2  A    between atoms: _9  and  _14
REMARK    3  A    between atoms: _10  and  _13
REMARK    4  A    between atoms: _11  and  _12
REMARK                            x       y       z     vdW  Elec       q    Type
REMARK                         _______ _______ _______ _____ _____    ______ ____
ROOT
ATOM      1  C   UNL     1     -14.826  -0.618  -4.340  0.00  0.00    +0.096 A 
ATOM      2  N   UNL     1     -14.438  -1.678  -5.068  0.00  0.00    -0.082 NA
ATOM      3  O   UNL     1     -14.767  -1.386  -6.380  0.00  0.00    -0.354 OA
ATOM      4  C   UNL     1     -15.354  -0.161  -6.445  0.00  0.00    +0.175 A 
ATOM      5  C   UNL     1     -15.829   0.504  -7.593  0.00  0.00    +0.076 A 
ATOM      6  C   UNL     1     -16.390   1.715  -7.399  0.00  0.00    +0.055 A 
ATOM      7  N   UNL     1     -16.496   2.296  -6.119  0.00  0.00    -0.310 N 
ATOM      8  C   UNL     1     -17.158   3.585  -5.952  0.00  0.00    +0.152 C 
ATOM      9  C   UNL     1     -15.989   1.669  -4.951  0.00  0.00    +0.264 A 
ATOM     10  O   UNL     1     -16.030   2.178  -3.836  0.00  0.00    -0.267 OA
ATOM     11  C   UNL     1     -15.410   0.363  -5.172  0.00  0.00    +0.109 A 
ENDROOT
BRANCH   6  12
ATOM     12  C   UNL     1     -16.875   2.431  -8.593  0.00  0.00    -0.001 A 
ATOM     13  C   UNL     1     -18.243   2.431  -8.900  0.00  0.00    +0.010 A 
ATOM     14  C   UNL     1     -18.712   3.119 -10.021  0.00  0.00    +0.001 A 
ATOM     15  C   UNL     1     -17.821   3.810 -10.840  0.00  0.00    +0.000 A 
ATOM     16  C   UNL     1     -16.459   3.816 -10.540  0.00  0.00    +0.001 A 
ATOM     17  C   UNL     1     -15.986   3.133  -9.415  0.00  0.00    +0.010 A 
ENDBRANCH   6  12
BRANCH   1  18
ATOM     18  C   UNL     1     -14.569  -0.621  -2.870  0.00  0.00    +0.056 C 
ATOM     19  C   UNL     1     -14.490  -2.004  -2.243  0.00  0.00    +0.010 C 
ENDBRANCH   1  18
TORSDOF 2
ENDMDL
