MODEL 1
REMARK VINA RESULT:      -6.8      0.000      0.000
REMARK  Name = min_compound919.pdb
REMARK  3 active torsions:
REMARK  status: ('A' for Active; 'I' for Inactive)
REMARK    1  A    between atoms: _1  and  _15
REMARK    2  A    between atoms: _2  and  _16
REMARK    3  A    between atoms: _6  and  _19
REMARK                            x       y       z     vdW  Elec       q    Type
REMARK                         _______ _______ _______ _____ _____    ______ ____
ROOT
ATOM      1  C   UNL     1     -15.017   7.682 -16.345  0.00  0.00    +0.027 A 
ATOM      2  C   UNL     1     -15.613   9.060 -16.333  0.00  0.00    +0.051 C 
ATOM      3  C   UNL     1     -15.300   6.595 -15.492  0.00  0.00    +0.278 A 
ATOM      4  C   UNL     1     -14.687   5.265 -15.628  0.00  0.00    +0.107 A 
ATOM      5  C   UNL     1     -13.747   4.942 -16.631  0.00  0.00    +0.041 A 
ATOM      6  C   UNL     1     -13.454   6.014 -17.479  0.00  0.00    +0.024 A 
ATOM      7  C   UNL     1     -14.065   7.321 -17.342  0.00  0.00    +0.012 A 
ENDROOT
BRANCH   5   8
ATOM      8  N   UNL     1     -13.160   3.587 -16.720  0.00  0.00    -0.269 N 
ATOM      9  H   UNL     1     -13.769   2.827 -16.457  0.00  0.00    +0.156 HD
ATOM     10  C   UNL     1     -11.862   3.238 -17.136  0.00  0.00    +0.306 C 
ATOM     11  N   UNL     1     -11.464   1.842 -17.098  0.00  0.00    -0.285 N 
ATOM     12  C   UNL     1     -12.276   0.706 -16.524  0.00  0.00    +0.109 C 
ATOM     13  C   UNL     1     -11.719  -0.687 -16.549  0.00  0.00    +0.019 C 
ATOM     14  C   UNL     1     -10.255  -0.282 -16.014  0.00  0.00    +0.003 C 
ATOM     15  C   UNL     1      -9.407   0.250 -17.275  0.00  0.00    +0.019 C 
ATOM     16  C   UNL     1      -9.964   1.643 -17.251  0.00  0.00    +0.109 C 
ATOM     17  O   UNL     1     -11.047   4.088 -17.506  0.00  0.00    -0.252 OA
ENDBRANCH   5   8
BRANCH   3  18
ATOM     18  N   UNL     1     -16.259   6.766 -14.395  0.00  0.00    +0.080 N 
ATOM     19  O   UNL     1     -15.863   7.361 -13.382  0.00  0.00    +0.041 OA
ATOM     20  O   UNL     1     -17.406   6.325 -14.551  0.00  0.00    -0.576 OA
ENDBRANCH   3  18
TORSDOF 2
ENDMDL
MODEL 2
REMARK VINA RESULT:      -6.6      2.031      2.369
REMARK  Name = min_compound919.pdb
REMARK  3 active torsions:
REMARK  status: ('A' for Active; 'I' for Inactive)
REMARK    1  A    between atoms: _1  and  _15
REMARK    2  A    between atoms: _2  and  _16
REMARK    3  A    between atoms: _6  and  _19
REMARK                            x       y       z     vdW  Elec       q    Type
REMARK                         _______ _______ _______ _____ _____    ______ ____
ROOT
ATOM      1  C   UNL     1     -16.296   6.216 -13.682  0.00  0.00    +0.027 A 
ATOM      2  C   UNL     1     -17.182   7.309 -13.158  0.00  0.00    +0.051 C 
ATOM      3  C   UNL     1     -15.784   5.095 -12.996  0.00  0.00    +0.278 A 
ATOM      4  C   UNL     1     -14.960   4.054 -13.626  0.00  0.00    +0.107 A 
ATOM      5  C   UNL     1     -14.594   4.072 -14.990  0.00  0.00    +0.041 A 
ATOM      6  C   UNL     1     -15.091   5.182 -15.680  0.00  0.00    +0.024 A 
ATOM      7  C   UNL     1     -15.906   6.203 -15.053  0.00  0.00    +0.012 A 
ENDROOT
BRANCH   5   8
ATOM      8  N   UNL     1     -13.760   2.997 -15.572  0.00  0.00    -0.269 N 
ATOM      9  H   UNL     1     -14.159   2.072 -15.548  0.00  0.00    +0.156 HD
ATOM     10  C   UNL     1     -12.488   3.120 -16.159  0.00  0.00    +0.306 C 
ATOM     11  N   UNL     1     -11.811   1.922 -16.625  0.00  0.00    -0.285 N 
ATOM     12  C   UNL     1     -12.287   0.504 -16.427  0.00  0.00    +0.109 C 
ATOM     13  C   UNL     1     -11.466  -0.633 -16.959  0.00  0.00    +0.019 C 
ATOM     14  C   UNL     1     -10.057  -0.084 -16.407  0.00  0.00    +0.003 C 
ATOM     15  C   UNL     1      -9.516   1.009 -17.458  0.00  0.00    +0.019 C 
ATOM     16  C   UNL     1     -10.337   2.146 -16.926  0.00  0.00    +0.109 C 
ATOM     17  O   UNL     1     -11.922   4.212 -16.265  0.00  0.00    -0.252 OA
ENDBRANCH   5   8
BRANCH   3  18
ATOM     18  N   UNL     1     -16.074   4.927 -11.567  0.00  0.00    +0.080 N 
ATOM     19  O   UNL     1     -15.184   5.247 -10.765  0.00  0.00    +0.041 OA
ATOM     20  O   UNL     1     -17.190   4.495 -11.247  0.00  0.00    -0.576 OA
ENDBRANCH   3  18
TORSDOF 2
ENDMDL
MODEL 3
REMARK VINA RESULT:      -6.6      1.711      2.268
REMARK  Name = min_compound919.pdb
REMARK  3 active torsions:
REMARK  status: ('A' for Active; 'I' for Inactive)
REMARK    1  A    between atoms: _1  and  _15
REMARK    2  A    between atoms: _2  and  _16
REMARK    3  A    between atoms: _6  and  _19
REMARK                            x       y       z     vdW  Elec       q    Type
REMARK                         _______ _______ _______ _____ _____    ______ ____
ROOT
ATOM      1  C   UNL     1     -15.939   6.658 -14.507  0.00  0.00    +0.027 A 
ATOM      2  C   UNL     1     -16.698   7.839 -13.974  0.00  0.00    +0.051 C 
ATOM      3  C   UNL     1     -15.419   6.460 -15.803  0.00  0.00    +0.278 A 
ATOM      4  C   UNL     1     -14.643   5.277 -16.204  0.00  0.00    +0.107 A 
ATOM      5  C   UNL     1     -14.341   4.212 -15.327  0.00  0.00    +0.041 A 
ATOM      6  C   UNL     1     -14.857   4.394 -14.040  0.00  0.00    +0.024 A 
ATOM      7  C   UNL     1     -15.618   5.565 -13.651  0.00  0.00    +0.012 A 
ENDROOT
BRANCH   5   8
ATOM      8  N   UNL     1     -13.558   3.044 -15.784  0.00  0.00    -0.269 N 
ATOM      9  H   UNL     1     -13.998   2.146 -15.662  0.00  0.00    +0.156 HD
ATOM     10  C   UNL     1     -12.281   3.045 -16.374  0.00  0.00    +0.306 C 
ATOM     11  N   UNL     1     -11.659   1.774 -16.704  0.00  0.00    -0.285 N 
ATOM     12  C   UNL     1     -12.199   0.408 -16.355  0.00  0.00    +0.109 C 
ATOM     13  C   UNL     1     -11.430  -0.816 -16.757  0.00  0.00    +0.019 C 
ATOM     14  C   UNL     1      -9.998  -0.274 -16.260  0.00  0.00    +0.003 C 
ATOM     15  C   UNL     1      -9.407   0.673 -17.421  0.00  0.00    +0.019 C 
ATOM     16  C   UNL     1     -10.176   1.897 -17.020  0.00  0.00    +0.109 C 
ATOM     17  O   UNL     1     -11.666   4.092 -16.595  0.00  0.00    -0.252 OA
ENDBRANCH   5   8
BRANCH   3  18
ATOM     18  N   UNL     1     -15.645   7.477 -16.837  0.00  0.00    +0.080 N 
ATOM     19  O   UNL     1     -16.680   7.381 -17.511  0.00  0.00    +0.041 OA
ATOM     20  O   UNL     1     -14.802   8.376 -16.962  0.00  0.00    -0.576 OA
ENDBRANCH   3  18
TORSDOF 2
ENDMDL
MODEL 4
REMARK VINA RESULT:      -6.5     12.851     13.845
REMARK  Name = min_compound919.pdb
REMARK  3 active torsions:
REMARK  status: ('A' for Active; 'I' for Inactive)
REMARK    1  A    between atoms: _1  and  _15
REMARK    2  A    between atoms: _2  and  _16
REMARK    3  A    between atoms: _6  and  _19
REMARK                            x       y       z     vdW  Elec       q    Type
REMARK                         _______ _______ _______ _____ _____    ______ ____
ROOT
ATOM      1  C   UNL     1     -15.574   1.132  -7.345  0.00  0.00    +0.027 A 
ATOM      2  C   UNL     1     -15.806   2.180  -8.394  0.00  0.00    +0.051 C 
ATOM      3  C   UNL     1     -16.521   0.313  -6.696  0.00  0.00    +0.278 A 
ATOM      4  C   UNL     1     -16.173  -0.723  -5.712  0.00  0.00    +0.107 A 
ATOM      5  C   UNL     1     -14.847  -1.002  -5.314  0.00  0.00    +0.041 A 
ATOM      6  C   UNL     1     -13.899  -0.193  -5.947  0.00  0.00    +0.024 A 
ATOM      7  C   UNL     1     -14.249   0.824  -6.919  0.00  0.00    +0.012 A 
ENDROOT
BRANCH   5   8
ATOM      8  N   UNL     1     -14.555  -2.056  -4.318  0.00  0.00    -0.269 N 
ATOM      9  H   UNL     1     -14.076  -2.871  -4.669  0.00  0.00    +0.156 HD
ATOM     10  C   UNL     1     -14.857  -2.046  -2.944  0.00  0.00    +0.306 C 
ATOM     11  N   UNL     1     -14.529  -3.214  -2.145  0.00  0.00    -0.285 N 
ATOM     12  C   UNL     1     -13.998  -4.525  -2.671  0.00  0.00    +0.109 C 
ATOM     13  C   UNL     1     -13.719  -5.647  -1.715  0.00  0.00    +0.019 C 
ATOM     14  C   UNL     1     -15.101  -5.511  -0.902  0.00  0.00    +0.003 C 
ATOM     15  C   UNL     1     -14.916  -4.332   0.178  0.00  0.00    +0.019 C 
ATOM     16  C   UNL     1     -15.195  -3.210  -0.777  0.00  0.00    +0.109 C 
ATOM     17  O   UNL     1     -15.414  -1.085  -2.406  0.00  0.00    -0.252 OA
ENDBRANCH   5   8
BRANCH   3  18
ATOM     18  N   UNL     1     -17.947   0.478  -6.998  0.00  0.00    +0.080 N 
ATOM     19  O   UNL     1     -18.579   1.306  -6.325  0.00  0.00    +0.041 OA
ATOM     20  O   UNL     1     -18.430  -0.203  -7.914  0.00  0.00    -0.576 OA
ENDBRANCH   3  18
TORSDOF 2
ENDMDL
MODEL 5
REMARK VINA RESULT:      -6.4      7.153      8.351
REMARK  Name = min_compound919.pdb
REMARK  3 active torsions:
REMARK  status: ('A' for Active; 'I' for Inactive)
REMARK    1  A    between atoms: _1  and  _15
REMARK    2  A    between atoms: _2  and  _16
REMARK    3  A    between atoms: _6  and  _19
REMARK                            x       y       z     vdW  Elec       q    Type
REMARK                         _______ _______ _______ _____ _____    ______ ____
ROOT
ATOM      1  C   UNL     1     -16.683   6.245 -12.226  0.00  0.00    +0.027 A 
ATOM      2  C   UNL     1     -17.002   7.191 -13.347  0.00  0.00    +0.051 C 
ATOM      3  C   UNL     1     -17.272   6.168 -10.947  0.00  0.00    +0.278 A 
ATOM      4  C   UNL     1     -16.912   5.161  -9.937  0.00  0.00    +0.107 A 
ATOM      5  C   UNL     1     -15.933   4.165 -10.147  0.00  0.00    +0.041 A 
ATOM      6  C   UNL     1     -15.338   4.235 -11.411  0.00  0.00    +0.024 A 
ATOM      7  C   UNL     1     -15.700   5.228 -12.402  0.00  0.00    +0.012 A 
ENDROOT
BRANCH   5   8
ATOM      8  N   UNL     1     -15.609   3.178  -9.095  0.00  0.00    -0.269 N 
ATOM      9  H   UNL     1     -14.643   3.140  -8.811  0.00  0.00    +0.156 HD
ATOM     10  C   UNL     1     -16.493   2.298  -8.443  0.00  0.00    +0.306 C 
ATOM     11  N   UNL     1     -15.958   1.361  -7.469  0.00  0.00    -0.285 N 
ATOM     12  C   UNL     1     -14.497   1.139  -7.165  0.00  0.00    +0.109 C 
ATOM     13  C   UNL     1     -14.102   0.121  -6.136  0.00  0.00    +0.019 C 
ATOM     14  C   UNL     1     -15.085  -1.036  -6.671  0.00  0.00    +0.003 C 
ATOM     15  C   UNL     1     -16.548  -0.752  -6.061  0.00  0.00    +0.019 C 
ATOM     16  C   UNL     1     -16.942   0.265  -7.091  0.00  0.00    +0.109 C 
ATOM     17  O   UNL     1     -17.701   2.283  -8.694  0.00  0.00    -0.252 OA
ENDBRANCH   5   8
BRANCH   3  18
ATOM     18  N   UNL     1     -18.310   7.134 -10.569  0.00  0.00    +0.080 N 
ATOM     19  O   UNL     1     -17.979   8.056  -9.810  0.00  0.00    +0.041 OA
ATOM     20  O   UNL     1     -19.445   6.982 -11.042  0.00  0.00    -0.576 OA
ENDBRANCH   3  18
TORSDOF 2
ENDMDL
MODEL 6
REMARK VINA RESULT:      -6.3      1.799      2.502
REMARK  Name = min_compound919.pdb
REMARK  3 active torsions:
REMARK  status: ('A' for Active; 'I' for Inactive)
REMARK    1  A    between atoms: _1  and  _15
REMARK    2  A    between atoms: _2  and  _16
REMARK    3  A    between atoms: _6  and  _19
REMARK                            x       y       z     vdW  Elec       q    Type
REMARK                         _______ _______ _______ _____ _____    ______ ____
ROOT
ATOM      1  C   UNL     1     -16.392   9.574 -17.057  0.00  0.00    +0.027 A 
ATOM      2  C   UNL     1     -17.154  10.861 -17.183  0.00  0.00    +0.051 C 
ATOM      3  C   UNL     1     -16.057   8.862 -15.886  0.00  0.00    +0.278 A 
ATOM      4  C   UNL     1     -15.345   7.575 -15.883  0.00  0.00    +0.107 A 
ATOM      5  C   UNL     1     -14.922   6.920 -17.060  0.00  0.00    +0.041 A 
ATOM      6  C   UNL     1     -15.244   7.618 -18.227  0.00  0.00    +0.024 A 
ATOM      7  C   UNL     1     -15.949   8.884 -18.223  0.00  0.00    +0.012 A 
ENDROOT
BRANCH   5   8
ATOM      8  N   UNL     1     -14.207   5.626 -16.998  0.00  0.00    -0.269 N 
ATOM      9  H   UNL     1     -14.770   4.826 -16.753  0.00  0.00    +0.156 HD
ATOM     10  C   UNL     1     -12.844   5.385 -17.249  0.00  0.00    +0.306 C 
ATOM     11  N   UNL     1     -12.326   4.038 -17.079  0.00  0.00    -0.285 N 
ATOM     12  C   UNL     1     -13.090   2.861 -16.524  0.00  0.00    +0.109 C 
ATOM     13  C   UNL     1     -12.409   1.530 -16.399  0.00  0.00    +0.019 C 
ATOM     14  C   UNL     1     -11.058   2.105 -15.737  0.00  0.00    +0.003 C 
ATOM     15  C   UNL     1     -10.125   2.649 -16.932  0.00  0.00    +0.019 C 
ATOM     16  C   UNL     1     -10.807   3.979 -17.057  0.00  0.00    +0.109 C 
ATOM     17  O   UNL     1     -12.074   6.289 -17.584  0.00  0.00    -0.252 OA
ENDBRANCH   5   8
BRANCH   3  18
ATOM     18  N   UNL     1     -16.427   9.410 -14.576  0.00  0.00    +0.080 N 
ATOM     19  O   UNL     1     -15.960  10.517 -14.270  0.00  0.00    +0.041 OA
ATOM     20  O   UNL     1     -17.193   8.746 -13.863  0.00  0.00    -0.576 OA
ENDBRANCH   3  18
TORSDOF 2
ENDMDL
MODEL 7
REMARK VINA RESULT:      -6.3      3.592      5.020
REMARK  Name = min_compound919.pdb
REMARK  3 active torsions:
REMARK  status: ('A' for Active; 'I' for Inactive)
REMARK    1  A    between atoms: _1  and  _15
REMARK    2  A    between atoms: _2  and  _16
REMARK    3  A    between atoms: _6  and  _19
REMARK                            x       y       z     vdW  Elec       q    Type
REMARK                         _______ _______ _______ _____ _____    ______ ____
ROOT
ATOM      1  C   UNL     1     -18.284   4.364 -11.331  0.00  0.00    +0.027 A 
ATOM      2  C   UNL     1     -19.468   4.461 -10.413  0.00  0.00    +0.051 C 
ATOM      3  C   UNL     1     -17.073   5.085 -11.283  0.00  0.00    +0.278 A 
ATOM      4  C   UNL     1     -15.953   4.871 -12.212  0.00  0.00    +0.107 A 
ATOM      5  C   UNL     1     -15.979   3.918 -13.254  0.00  0.00    +0.041 A 
ATOM      6  C   UNL     1     -17.178   3.201 -13.315  0.00  0.00    +0.024 A 
ATOM      7  C   UNL     1     -18.276   3.414 -12.394  0.00  0.00    +0.012 A 
ENDROOT
BRANCH   5   8
ATOM      8  N   UNL     1     -14.824   3.747 -14.161  0.00  0.00    -0.269 N 
ATOM      9  H   UNL     1     -14.152   3.047 -13.887  0.00  0.00    +0.156 HD
ATOM     10  C   UNL     1     -14.562   4.437 -15.359  0.00  0.00    +0.306 C 
ATOM     11  N   UNL     1     -13.332   4.153 -16.078  0.00  0.00    -0.285 N 
ATOM     12  C   UNL     1     -12.212   3.262 -15.598  0.00  0.00    +0.109 C 
ATOM     13  C   UNL     1     -10.995   3.078 -16.455  0.00  0.00    +0.019 C 
ATOM     14  C   UNL     1     -10.804   4.640 -16.797  0.00  0.00    +0.003 C 
ATOM     15  C   UNL     1     -11.800   4.998 -18.010  0.00  0.00    +0.019 C 
ATOM     16  C   UNL     1     -13.017   5.182 -17.153  0.00  0.00    +0.109 C 
ATOM     17  O   UNL     1     -15.335   5.292 -15.799  0.00  0.00    -0.252 OA
ENDBRANCH   5   8
BRANCH   3  18
ATOM     18  N   UNL     1     -16.886   6.116 -10.256  0.00  0.00    +0.080 N 
ATOM     19  O   UNL     1     -17.382   7.231 -10.473  0.00  0.00    +0.041 OA
ATOM     20  O   UNL     1     -16.261   5.809  -9.231  0.00  0.00    -0.576 OA
ENDBRANCH   3  18
TORSDOF 2
ENDMDL
MODEL 8
REMARK VINA RESULT:      -6.2      7.890      9.697
REMARK  Name = min_compound919.pdb
REMARK  3 active torsions:
REMARK  status: ('A' for Active; 'I' for Inactive)
REMARK    1  A    between atoms: _1  and  _15
REMARK    2  A    between atoms: _2  and  _16
REMARK    3  A    between atoms: _6  and  _19
REMARK                            x       y       z     vdW  Elec       q    Type
REMARK                         _______ _______ _______ _____ _____    ______ ____
ROOT
ATOM      1  C   UNL     1     -16.298   1.983  -5.442  0.00  0.00    +0.027 A 
ATOM      2  C   UNL     1     -16.259   1.755  -3.959  0.00  0.00    +0.051 C 
ATOM      3  C   UNL     1     -15.617   1.280  -6.457  0.00  0.00    +0.278 A 
ATOM      4  C   UNL     1     -15.770   1.560  -7.893  0.00  0.00    +0.107 A 
ATOM      5  C   UNL     1     -16.618   2.568  -8.402  0.00  0.00    +0.041 A 
ATOM      6  C   UNL     1     -17.295   3.275  -7.404  0.00  0.00    +0.024 A 
ATOM      7  C   UNL     1     -17.142   2.992  -5.991  0.00  0.00    +0.012 A 
ENDROOT
BRANCH   5   8
ATOM      8  N   UNL     1     -16.733   2.807  -9.857  0.00  0.00    -0.269 N 
ATOM      9  H   UNL     1     -17.265   2.124 -10.373  0.00  0.00    +0.156 HD
ATOM     10  C   UNL     1     -16.195   3.876 -10.596  0.00  0.00    +0.306 C 
ATOM     11  N   UNL     1     -16.378   3.896 -12.037  0.00  0.00    -0.285 N 
ATOM     12  C   UNL     1     -16.994   2.795 -12.866  0.00  0.00    +0.109 C 
ATOM     13  C   UNL     1     -17.102   2.960 -14.352  0.00  0.00    +0.019 C 
ATOM     14  C   UNL     1     -15.598   3.495 -14.563  0.00  0.00    +0.003 C 
ATOM     15  C   UNL     1     -15.591   5.070 -14.228  0.00  0.00    +0.019 C 
ATOM     16  C   UNL     1     -15.483   4.905 -12.741  0.00  0.00    +0.109 C 
ATOM     17  O   UNL     1     -15.551   4.781 -10.058  0.00  0.00    -0.252 OA
ENDBRANCH   5   8
BRANCH   3  18
ATOM     18  N   UNL     1     -14.695   0.198  -6.094  0.00  0.00    +0.080 N 
ATOM     19  O   UNL     1     -15.069  -0.964  -6.308  0.00  0.00    +0.041 OA
ATOM     20  O   UNL     1     -13.595   0.509  -5.615  0.00  0.00    -0.576 OA
ENDBRANCH   3  18
TORSDOF 2
ENDMDL
MODEL 9
REMARK VINA RESULT:      -6.2      2.419      7.380
REMARK  Name = min_compound919.pdb
REMARK  3 active torsions:
REMARK  status: ('A' for Active; 'I' for Inactive)
REMARK    1  A    between atoms: _1  and  _15
REMARK    2  A    between atoms: _2  and  _16
REMARK    3  A    between atoms: _6  and  _19
REMARK                            x       y       z     vdW  Elec       q    Type
REMARK                         _______ _______ _______ _____ _____    ______ ____
ROOT
ATOM      1  C   UNL     1     -10.305   1.072 -17.114  0.00  0.00    +0.027 A 
ATOM      2  C   UNL     1      -9.180   0.102 -17.333  0.00  0.00    +0.051 C 
ATOM      3  C   UNL     1     -11.598   0.820 -16.611  0.00  0.00    +0.278 A 
ATOM      4  C   UNL     1     -12.610   1.863 -16.390  0.00  0.00    +0.107 A 
ATOM      5  C   UNL     1     -12.389   3.230 -16.664  0.00  0.00    +0.041 A 
ATOM      6  C   UNL     1     -11.112   3.493 -17.168  0.00  0.00    +0.024 A 
ATOM      7  C   UNL     1     -10.117   2.460 -17.380  0.00  0.00    +0.012 A 
ENDROOT
BRANCH   5   8
ATOM      8  N   UNL     1     -13.445   4.238 -16.424  0.00  0.00    -0.269 N 
ATOM      9  H   UNL     1     -13.620   4.879 -17.182  0.00  0.00    +0.156 HD
ATOM     10  C   UNL     1     -14.235   4.397 -15.270  0.00  0.00    +0.306 C 
ATOM     11  N   UNL     1     -15.187   5.493 -15.216  0.00  0.00    -0.285 N 
ATOM     12  C   UNL     1     -15.335   6.587 -16.245  0.00  0.00    +0.109 C 
ATOM     13  C   UNL     1     -16.361   7.661 -16.039  0.00  0.00    +0.019 C 
ATOM     14  C   UNL     1     -15.996   7.937 -14.495  0.00  0.00    +0.003 C 
ATOM     15  C   UNL     1     -16.752   6.823 -13.611  0.00  0.00    +0.019 C 
ATOM     16  C   UNL     1     -15.725   5.749 -13.817  0.00  0.00    +0.109 C 
ATOM     17  O   UNL     1     -14.122   3.648 -14.295  0.00  0.00    -0.252 OA
ENDBRANCH   5   8
BRANCH   3  18
ATOM     18  N   UNL     1     -11.988  -0.555 -16.276  0.00  0.00    +0.080 N 
ATOM     19  O   UNL     1     -11.093  -1.322 -15.893  0.00  0.00    +0.041 OA
ATOM     20  O   UNL     1     -13.184  -0.861 -16.379  0.00  0.00    -0.576 OA
ENDBRANCH   3  18
TORSDOF 2
ENDMDL
