MODEL 1
REMARK VINA RESULT:      -7.7      0.000      0.000
REMARK  Name = min_compound985.pdb
REMARK  9 active torsions:
REMARK  status: ('A' for Active; 'I' for Inactive)
REMARK    1  A    between atoms: _1  and  _7
REMARK    2  A    between atoms: _4  and  _14
REMARK    3  A    between atoms: _7  and  _8
REMARK    4  A    between atoms: _14  and  _15
REMARK    5  A    between atoms: _15  and  _16
REMARK    6  A    between atoms: _16  and  _18
REMARK    7  A    between atoms: _18  and  _19
REMARK    8  A    between atoms: _18  and  _20
REMARK    9  A    between atoms: _18  and  _21
REMARK                            x       y       z     vdW  Elec       q    Type
REMARK                         _______ _______ _______ _____ _____    ______ ____
ROOT
ATOM      1  C   UNL     1     -14.130   2.713 -15.882  0.00  0.00    +0.128 A 
ATOM      2  C   UNL     1     -15.249   1.894 -15.750  0.00  0.00    +0.046 A 
ATOM      3  C   UNL     1     -16.226   2.182 -14.791  0.00  0.00    +0.007 A 
ATOM      4  C   UNL     1     -16.093   3.281 -13.934  0.00  0.00    -0.047 A 
ATOM      5  C   UNL     1     -14.967   4.105 -14.081  0.00  0.00    +0.007 A 
ATOM      6  C   UNL     1     -13.982   3.816 -15.038  0.00  0.00    +0.046 A 
ENDROOT
BRANCH   1   7
ATOM      7  O   UNL     1     -13.192   2.300 -16.801  0.00  0.00    -0.456 OA
BRANCH   7   8
ATOM      8  C   UNL     1     -12.185   1.451 -16.413  0.00  0.00    +0.128 A 
ATOM      9  C   UNL     1     -12.285   0.129 -16.851  0.00  0.00    +0.046 A 
ATOM     10  C   UNL     1     -11.272  -0.785 -16.559  0.00  0.00    +0.004 A 
ATOM     11  C   UNL     1     -10.150  -0.372 -15.840  0.00  0.00    +0.000 A 
ATOM     12  C   UNL     1     -10.037   0.955 -15.422  0.00  0.00    +0.004 A 
ATOM     13  C   UNL     1     -11.049   1.873 -15.718  0.00  0.00    +0.046 A 
ENDBRANCH   7   8
ENDBRANCH   1   7
BRANCH   4  14
ATOM     14  C   UNL     1     -17.110   3.587 -12.909  0.00  0.00    +0.042 C 
BRANCH  14  15
ATOM     15  C   UNL     1     -17.076   3.201 -11.507  0.00  0.00    +0.079 C 
BRANCH  15  16
ATOM     16  C   UNL     1     -16.330   3.818 -10.553  0.00  0.00    +0.139 C 
ATOM     17  O   UNL     1     -15.308   4.564 -10.701  0.00  0.00    -0.297 OA
BRANCH  16  18
ATOM     18  C   UNL     1     -16.775   3.746  -9.123  0.00  0.00    +0.021 C 
ATOM     19  C   UNL     1     -16.743   5.243  -9.038  0.00  0.00    +0.018 C 
ATOM     20  C   UNL     1     -16.807   2.249  -9.207  0.00  0.00    +0.018 C 
ATOM     21  C   UNL     1     -17.220   3.675  -7.692  0.00  0.00    +0.018 C 
ENDBRANCH  16  18
ENDBRANCH  15  16
ENDBRANCH  14  15
ENDBRANCH   4  14
TORSDOF 6
ENDMDL
MODEL 2
REMARK VINA RESULT:      -7.6      4.389      7.642
REMARK  Name = min_compound985.pdb
REMARK  9 active torsions:
REMARK  status: ('A' for Active; 'I' for Inactive)
REMARK    1  A    between atoms: _1  and  _7
REMARK    2  A    between atoms: _4  and  _14
REMARK    3  A    between atoms: _7  and  _8
REMARK    4  A    between atoms: _14  and  _15
REMARK    5  A    between atoms: _15  and  _16
REMARK    6  A    between atoms: _16  and  _18
REMARK    7  A    between atoms: _18  and  _19
REMARK    8  A    between atoms: _18  and  _20
REMARK    9  A    between atoms: _18  and  _21
REMARK                            x       y       z     vdW  Elec       q    Type
REMARK                         _______ _______ _______ _____ _____    ______ ____
ROOT
ATOM      1  C   UNL     1     -16.639   2.059  -8.591  0.00  0.00    +0.128 A 
ATOM      2  C   UNL     1     -15.325   2.180  -8.144  0.00  0.00    +0.046 A 
ATOM      3  C   UNL     1     -14.748   1.172  -7.366  0.00  0.00    +0.007 A 
ATOM      4  C   UNL     1     -15.478   0.033  -7.004  0.00  0.00    -0.047 A 
ATOM      5  C   UNL     1     -16.797  -0.084  -7.466  0.00  0.00    +0.007 A 
ATOM      6  C   UNL     1     -17.382   0.929  -8.243  0.00  0.00    +0.046 A 
ENDROOT
BRANCH   1   7
ATOM      7  O   UNL     1     -17.137   3.139  -9.283  0.00  0.00    -0.456 OA
BRANCH   7   8
ATOM      8  C   UNL     1     -16.597   3.477 -10.501  0.00  0.00    +0.128 A 
ATOM      9  C   UNL     1     -17.228   2.945 -11.627  0.00  0.00    +0.046 A 
ATOM     10  C   UNL     1     -16.789   3.289 -12.906  0.00  0.00    +0.004 A 
ATOM     11  C   UNL     1     -15.723   4.178 -13.058  0.00  0.00    +0.000 A 
ATOM     12  C   UNL     1     -15.107   4.728 -11.933  0.00  0.00    +0.004 A 
ATOM     13  C   UNL     1     -15.551   4.389 -10.652  0.00  0.00    +0.046 A 
ENDBRANCH   7   8
ENDBRANCH   1   7
BRANCH   4  14
ATOM     14  C   UNL     1     -14.884  -1.031  -6.171  0.00  0.00    +0.042 C 
BRANCH  14  15
ATOM     15  C   UNL     1     -14.527  -0.939  -4.765  0.00  0.00    +0.079 C 
BRANCH  15  16
ATOM     16  C   UNL     1     -15.115  -0.100  -3.871  0.00  0.00    +0.139 C 
ATOM     17  O   UNL     1     -16.031  -0.356  -3.022  0.00  0.00    -0.297 OA
BRANCH  16  18
ATOM     18  C   UNL     1     -14.589   1.297  -3.730  0.00  0.00    +0.021 C 
ATOM     19  C   UNL     1     -13.220   0.754  -3.449  0.00  0.00    +0.018 C 
ATOM     20  C   UNL     1     -15.958   1.841  -4.011  0.00  0.00    +0.018 C 
ATOM     21  C   UNL     1     -14.063   2.695  -3.589  0.00  0.00    +0.018 C 
ENDBRANCH  16  18
ENDBRANCH  15  16
ENDBRANCH  14  15
ENDBRANCH   4  14
TORSDOF 6
ENDMDL
MODEL 3
REMARK VINA RESULT:      -7.5      0.279      1.760
REMARK  Name = min_compound985.pdb
REMARK  9 active torsions:
REMARK  status: ('A' for Active; 'I' for Inactive)
REMARK    1  A    between atoms: _1  and  _7
REMARK    2  A    between atoms: _4  and  _14
REMARK    3  A    between atoms: _7  and  _8
REMARK    4  A    between atoms: _14  and  _15
REMARK    5  A    between atoms: _15  and  _16
REMARK    6  A    between atoms: _16  and  _18
REMARK    7  A    between atoms: _18  and  _19
REMARK    8  A    between atoms: _18  and  _20
REMARK    9  A    between atoms: _18  and  _21
REMARK                            x       y       z     vdW  Elec       q    Type
REMARK                         _______ _______ _______ _____ _____    ______ ____
ROOT
ATOM      1  C   UNL     1     -13.970   2.652 -15.947  0.00  0.00    +0.128 A 
ATOM      2  C   UNL     1     -13.850   3.790 -15.152  0.00  0.00    +0.046 A 
ATOM      3  C   UNL     1     -14.832   4.094 -14.203  0.00  0.00    +0.007 A 
ATOM      4  C   UNL     1     -15.960   3.280 -14.045  0.00  0.00    -0.047 A 
ATOM      5  C   UNL     1     -16.067   2.132 -14.844  0.00  0.00    +0.007 A 
ATOM      6  C   UNL     1     -15.087   1.827 -15.802  0.00  0.00    +0.046 A 
ENDROOT
BRANCH   1   7
ATOM      7  O   UNL     1     -12.992   2.484 -16.901  0.00  0.00    -0.456 OA
BRANCH   7   8
ATOM      8  C   UNL     1     -11.991   1.566 -16.697  0.00  0.00    +0.128 A 
ATOM      9  C   UNL     1     -11.085   1.854 -15.675  0.00  0.00    +0.046 A 
ATOM     10  C   UNL     1     -10.076   0.945 -15.354  0.00  0.00    +0.004 A 
ATOM     11  C   UNL     1      -9.983  -0.261 -16.049  0.00  0.00    +0.000 A 
ATOM     12  C   UNL     1     -10.903  -0.562 -17.054  0.00  0.00    +0.004 A 
ATOM     13  C   UNL     1     -11.917   0.346 -17.373  0.00  0.00    +0.046 A 
ENDBRANCH   7   8
ENDBRANCH   1   7
BRANCH   4  14
ATOM     14  C   UNL     1     -17.008   3.599 -13.057  0.00  0.00    +0.042 C 
BRANCH  14  15
ATOM     15  C   UNL     1     -17.009   3.252 -11.645  0.00  0.00    +0.079 C 
BRANCH  15  16
ATOM     16  C   UNL     1     -16.309   3.914 -10.685  0.00  0.00    +0.139 C 
ATOM     17  O   UNL     1     -15.323   4.709 -10.825  0.00  0.00    -0.297 OA
BRANCH  16  18
ATOM     18  C   UNL     1     -16.773   3.834  -9.261  0.00  0.00    +0.021 C 
ATOM     19  C   UNL     1     -16.905   2.345  -9.388  0.00  0.00    +0.018 C 
ATOM     20  C   UNL     1     -16.642   5.323  -9.135  0.00  0.00    +0.018 C 
ATOM     21  C   UNL     1     -17.237   3.754  -7.837  0.00  0.00    +0.018 C 
ENDBRANCH  16  18
ENDBRANCH  15  16
ENDBRANCH  14  15
ENDBRANCH   4  14
TORSDOF 6
ENDMDL
MODEL 4
REMARK VINA RESULT:      -7.4      1.369      2.046
REMARK  Name = min_compound985.pdb
REMARK  9 active torsions:
REMARK  status: ('A' for Active; 'I' for Inactive)
REMARK    1  A    between atoms: _1  and  _7
REMARK    2  A    between atoms: _4  and  _14
REMARK    3  A    between atoms: _7  and  _8
REMARK    4  A    between atoms: _14  and  _15
REMARK    5  A    between atoms: _15  and  _16
REMARK    6  A    between atoms: _16  and  _18
REMARK    7  A    between atoms: _18  and  _19
REMARK    8  A    between atoms: _18  and  _20
REMARK    9  A    between atoms: _18  and  _21
REMARK                            x       y       z     vdW  Elec       q    Type
REMARK                         _______ _______ _______ _____ _____    ______ ____
ROOT
ATOM      1  C   UNL     1     -13.644   3.118 -15.928  0.00  0.00    +0.128 A 
ATOM      2  C   UNL     1     -14.546   2.104 -16.242  0.00  0.00    +0.046 A 
ATOM      3  C   UNL     1     -15.723   1.952 -15.502  0.00  0.00    +0.007 A 
ATOM      4  C   UNL     1     -16.012   2.797 -14.424  0.00  0.00    -0.047 A 
ATOM      5  C   UNL     1     -15.103   3.822 -14.122  0.00  0.00    +0.007 A 
ATOM      6  C   UNL     1     -13.917   3.974 -14.858  0.00  0.00    +0.046 A 
ENDROOT
BRANCH   1   7
ATOM      7  O   UNL     1     -12.482   3.135 -16.665  0.00  0.00    -0.456 OA
BRANCH   7   8
ATOM      8  C   UNL     1     -11.672   2.026 -16.687  0.00  0.00    +0.128 A 
ATOM      9  C   UNL     1     -10.895   1.804 -15.548  0.00  0.00    +0.046 A 
ATOM     10  C   UNL     1     -10.093   0.666 -15.457  0.00  0.00    +0.004 A 
ATOM     11  C   UNL     1     -10.080  -0.260 -16.501  0.00  0.00    +0.000 A 
ATOM     12  C   UNL     1     -10.876  -0.052 -17.628  0.00  0.00    +0.004 A 
ATOM     13  C   UNL     1     -11.684   1.085 -17.719  0.00  0.00    +0.046 A 
ENDBRANCH   7   8
ENDBRANCH   1   7
BRANCH   4  14
ATOM     14  C   UNL     1     -17.244   2.638 -13.628  0.00  0.00    +0.042 C 
BRANCH  14  15
ATOM     15  C   UNL     1     -18.015   3.696 -12.994  0.00  0.00    +0.079 C 
BRANCH  15  16
ATOM     16  C   UNL     1     -18.236   3.797 -11.657  0.00  0.00    +0.139 C 
ATOM     17  O   UNL     1     -19.262   3.439 -10.991  0.00  0.00    -0.297 OA
BRANCH  16  18
ATOM     18  C   UNL     1     -17.126   4.278 -10.770  0.00  0.00    +0.021 C 
ATOM     19  C   UNL     1     -17.090   2.942 -10.090  0.00  0.00    +0.018 C 
ATOM     20  C   UNL     1     -17.163   5.615 -11.451  0.00  0.00    +0.018 C 
ATOM     21  C   UNL     1     -16.016   4.760  -9.884  0.00  0.00    +0.018 C 
ENDBRANCH  16  18
ENDBRANCH  15  16
ENDBRANCH  14  15
ENDBRANCH   4  14
TORSDOF 6
ENDMDL
MODEL 5
REMARK VINA RESULT:      -7.4      1.278      7.771
REMARK  Name = min_compound985.pdb
REMARK  9 active torsions:
REMARK  status: ('A' for Active; 'I' for Inactive)
REMARK    1  A    between atoms: _1  and  _7
REMARK    2  A    between atoms: _4  and  _14
REMARK    3  A    between atoms: _7  and  _8
REMARK    4  A    between atoms: _14  and  _15
REMARK    5  A    between atoms: _15  and  _16
REMARK    6  A    between atoms: _16  and  _18
REMARK    7  A    between atoms: _18  and  _19
REMARK    8  A    between atoms: _18  and  _20
REMARK    9  A    between atoms: _18  and  _21
REMARK                            x       y       z     vdW  Elec       q    Type
REMARK                         _______ _______ _______ _____ _____    ______ ____
ROOT
ATOM      1  C   UNL     1     -16.357   3.958 -13.576  0.00  0.00    +0.128 A 
ATOM      2  C   UNL     1     -15.204   4.614 -14.002  0.00  0.00    +0.046 A 
ATOM      3  C   UNL     1     -14.396   4.049 -14.994  0.00  0.00    +0.007 A 
ATOM      4  C   UNL     1     -14.715   2.811 -15.566  0.00  0.00    -0.047 A 
ATOM      5  C   UNL     1     -15.883   2.163 -15.137  0.00  0.00    +0.007 A 
ATOM      6  C   UNL     1     -16.693   2.724 -14.137  0.00  0.00    +0.046 A 
ENDROOT
BRANCH   1   7
ATOM      7  O   UNL     1     -17.039   4.559 -12.543  0.00  0.00    -0.456 OA
BRANCH   7   8
ATOM      8  C   UNL     1     -17.045   3.976 -11.299  0.00  0.00    +0.128 A 
ATOM      9  C   UNL     1     -18.270   3.476 -10.854  0.00  0.00    +0.046 A 
ATOM     10  C   UNL     1     -18.354   2.809  -9.632  0.00  0.00    +0.004 A 
ATOM     11  C   UNL     1     -17.206   2.629  -8.859  0.00  0.00    +0.000 A 
ATOM     12  C   UNL     1     -15.976   3.106  -9.315  0.00  0.00    +0.004 A 
ATOM     13  C   UNL     1     -15.890   3.770 -10.541  0.00  0.00    +0.046 A 
ENDBRANCH   7   8
ENDBRANCH   1   7
BRANCH   4  14
ATOM     14  C   UNL     1     -13.863   2.199 -16.604  0.00  0.00    +0.042 C 
BRANCH  14  15
ATOM     15  C   UNL     1     -12.911   1.116 -16.421  0.00  0.00    +0.079 C 
BRANCH  15  16
ATOM     16  C   UNL     1     -11.589   1.285 -16.153  0.00  0.00    +0.139 C 
ATOM     17  O   UNL     1     -11.041   2.062 -15.305  0.00  0.00    -0.297 OA
BRANCH  16  18
ATOM     18  C   UNL     1     -10.590   0.392 -16.828  0.00  0.00    +0.021 C 
ATOM     19  C   UNL     1     -11.270  -0.810 -16.242  0.00  0.00    +0.018 C 
ATOM     20  C   UNL     1      -9.910   1.594 -17.413  0.00  0.00    +0.018 C 
ATOM     21  C   UNL     1      -9.591  -0.501 -17.502  0.00  0.00    +0.018 C 
ENDBRANCH  16  18
ENDBRANCH  15  16
ENDBRANCH  14  15
ENDBRANCH   4  14
TORSDOF 6
ENDMDL
MODEL 6
REMARK VINA RESULT:      -7.2      2.392      3.693
REMARK  Name = min_compound985.pdb
REMARK  9 active torsions:
REMARK  status: ('A' for Active; 'I' for Inactive)
REMARK    1  A    between atoms: _1  and  _7
REMARK    2  A    between atoms: _4  and  _14
REMARK    3  A    between atoms: _7  and  _8
REMARK    4  A    between atoms: _14  and  _15
REMARK    5  A    between atoms: _15  and  _16
REMARK    6  A    between atoms: _16  and  _18
REMARK    7  A    between atoms: _18  and  _19
REMARK    8  A    between atoms: _18  and  _20
REMARK    9  A    between atoms: _18  and  _21
REMARK                            x       y       z     vdW  Elec       q    Type
REMARK                         _______ _______ _______ _____ _____    ______ ____
ROOT
ATOM      1  C   UNL     1     -13.926   2.612 -16.349  0.00  0.00    +0.128 A 
ATOM      2  C   UNL     1     -15.167   2.158 -15.908  0.00  0.00    +0.046 A 
ATOM      3  C   UNL     1     -15.782   2.748 -14.799  0.00  0.00    +0.007 A 
ATOM      4  C   UNL     1     -15.161   3.790 -14.099  0.00  0.00    -0.047 A 
ATOM      5  C   UNL     1     -13.915   4.246 -14.556  0.00  0.00    +0.007 A 
ATOM      6  C   UNL     1     -13.292   3.651 -15.665  0.00  0.00    +0.046 A 
ENDROOT
BRANCH   1   7
ATOM      7  O   UNL     1     -13.372   1.915 -17.398  0.00  0.00    -0.456 OA
BRANCH   7   8
ATOM      8  C   UNL     1     -12.255   1.143 -17.190  0.00  0.00    +0.128 A 
ATOM      9  C   UNL     1     -11.032   1.714 -17.546  0.00  0.00    +0.046 A 
ATOM     10  C   UNL     1      -9.841   1.028 -17.307  0.00  0.00    +0.004 A 
ATOM     11  C   UNL     1      -9.873  -0.228 -16.699  0.00  0.00    +0.000 A 
ATOM     12  C   UNL     1     -11.093  -0.789 -16.320  0.00  0.00    +0.004 A 
ATOM     13  C   UNL     1     -12.286  -0.100 -16.554  0.00  0.00    +0.046 A 
ENDBRANCH   7   8
ENDBRANCH   1   7
BRANCH   4  14
ATOM     14  C   UNL     1     -15.794   4.411 -12.920  0.00  0.00    +0.042 C 
BRANCH  14  15
ATOM     15  C   UNL     1     -15.791   5.823 -12.573  0.00  0.00    +0.079 C 
BRANCH  15  16
ATOM     16  C   UNL     1     -16.682   6.737 -13.043  0.00  0.00    +0.139 C 
ATOM     17  O   UNL     1     -17.469   7.492 -12.385  0.00  0.00    -0.297 OA
BRANCH  16  18
ATOM     18  C   UNL     1     -16.718   7.028 -14.514  0.00  0.00    +0.021 C 
ATOM     19  C   UNL     1     -18.010   6.276 -14.632  0.00  0.00    +0.018 C 
ATOM     20  C   UNL     1     -15.425   7.781 -14.396  0.00  0.00    +0.018 C 
ATOM     21  C   UNL     1     -16.753   7.320 -15.985  0.00  0.00    +0.018 C 
ENDBRANCH  16  18
ENDBRANCH  15  16
ENDBRANCH  14  15
ENDBRANCH   4  14
TORSDOF 6
ENDMDL
MODEL 7
REMARK VINA RESULT:      -7.1      2.926      3.874
REMARK  Name = min_compound985.pdb
REMARK  9 active torsions:
REMARK  status: ('A' for Active; 'I' for Inactive)
REMARK    1  A    between atoms: _1  and  _7
REMARK    2  A    between atoms: _4  and  _14
REMARK    3  A    between atoms: _7  and  _8
REMARK    4  A    between atoms: _14  and  _15
REMARK    5  A    between atoms: _15  and  _16
REMARK    6  A    between atoms: _16  and  _18
REMARK    7  A    between atoms: _18  and  _19
REMARK    8  A    between atoms: _18  and  _20
REMARK    9  A    between atoms: _18  and  _21
REMARK                            x       y       z     vdW  Elec       q    Type
REMARK                         _______ _______ _______ _____ _____    ______ ____
ROOT
ATOM      1  C   UNL     1     -12.720   2.593 -18.038  0.00  0.00    +0.128 A 
ATOM      2  C   UNL     1     -13.952   2.948 -18.582  0.00  0.00    +0.046 A 
ATOM      3  C   UNL     1     -14.598   4.116 -18.165  0.00  0.00    +0.007 A 
ATOM      4  C   UNL     1     -14.036   4.940 -17.182  0.00  0.00    -0.047 A 
ATOM      5  C   UNL     1     -12.791   4.579 -16.646  0.00  0.00    +0.007 A 
ATOM      6  C   UNL     1     -12.142   3.403 -17.058  0.00  0.00    +0.046 A 
ENDROOT
BRANCH   1   7
ATOM      7  O   UNL     1     -12.206   1.388 -18.458  0.00  0.00    -0.456 OA
BRANCH   7   8
ATOM      8  C   UNL     1     -11.353   0.688 -17.640  0.00  0.00    +0.128 A 
ATOM      9  C   UNL     1     -11.943  -0.236 -16.776  0.00  0.00    +0.046 A 
ATOM     10  C   UNL     1     -11.147  -1.039 -15.957  0.00  0.00    +0.004 A 
ATOM     11  C   UNL     1      -9.757  -0.926 -16.014  0.00  0.00    +0.000 A 
ATOM     12  C   UNL     1      -9.166  -0.020 -16.896  0.00  0.00    +0.004 A 
ATOM     13  C   UNL     1      -9.962   0.781 -17.720  0.00  0.00    +0.046 A 
ENDBRANCH   7   8
ENDBRANCH   1   7
BRANCH   4  14
ATOM     14  C   UNL     1     -14.715   6.167 -16.724  0.00  0.00    +0.042 C 
BRANCH  14  15
ATOM     15  C   UNL     1     -15.856   6.247 -15.826  0.00  0.00    +0.079 C 
BRANCH  15  16
ATOM     16  C   UNL     1     -15.882   5.747 -14.562  0.00  0.00    +0.139 C 
ATOM     17  O   UNL     1     -15.826   6.377 -13.456  0.00  0.00    -0.297 OA
BRANCH  16  18
ATOM     18  C   UNL     1     -16.120   4.279 -14.366  0.00  0.00    +0.021 C 
ATOM     19  C   UNL     1     -17.385   4.377 -15.167  0.00  0.00    +0.018 C 
ATOM     20  C   UNL     1     -14.856   4.181 -13.565  0.00  0.00    +0.018 C 
ATOM     21  C   UNL     1     -16.358   2.811 -14.170  0.00  0.00    +0.018 C 
ENDBRANCH  16  18
ENDBRANCH  15  16
ENDBRANCH  14  15
ENDBRANCH   4  14
TORSDOF 6
ENDMDL
MODEL 8
REMARK VINA RESULT:      -7.1      4.817      5.933
REMARK  Name = min_compound985.pdb
REMARK  9 active torsions:
REMARK  status: ('A' for Active; 'I' for Inactive)
REMARK    1  A    between atoms: _1  and  _7
REMARK    2  A    between atoms: _4  and  _14
REMARK    3  A    between atoms: _7  and  _8
REMARK    4  A    between atoms: _14  and  _15
REMARK    5  A    between atoms: _15  and  _16
REMARK    6  A    between atoms: _16  and  _18
REMARK    7  A    between atoms: _18  and  _19
REMARK    8  A    between atoms: _18  and  _20
REMARK    9  A    between atoms: _18  and  _21
REMARK                            x       y       z     vdW  Elec       q    Type
REMARK                         _______ _______ _______ _____ _____    ______ ____
ROOT
ATOM      1  C   UNL     1     -11.337   3.725 -15.911  0.00  0.00    +0.128 A 
ATOM      2  C   UNL     1     -10.761   4.759 -16.645  0.00  0.00    +0.046 A 
ATOM      3  C   UNL     1     -11.567   5.672 -17.333  0.00  0.00    +0.007 A 
ATOM      4  C   UNL     1     -12.963   5.558 -17.315  0.00  0.00    -0.047 A 
ATOM      5  C   UNL     1     -13.534   4.519 -16.566  0.00  0.00    +0.007 A 
ATOM      6  C   UNL     1     -12.728   3.596 -15.880  0.00  0.00    +0.046 A 
ENDROOT
BRANCH   1   7
ATOM      7  O   UNL     1     -10.458   2.837 -15.337  0.00  0.00    -0.456 OA
BRANCH   7   8
ATOM      8  C   UNL     1     -10.218   1.626 -15.940  0.00  0.00    +0.128 A 
ATOM      9  C   UNL     1     -10.225   0.506 -15.106  0.00  0.00    +0.046 A 
ATOM     10  C   UNL     1     -10.057  -0.770 -15.645  0.00  0.00    +0.004 A 
ATOM     11  C   UNL     1      -9.896  -0.927 -17.022  0.00  0.00    +0.000 A 
ATOM     12  C   UNL     1      -9.914   0.190 -17.859  0.00  0.00    +0.004 A 
ATOM     13  C   UNL     1     -10.087   1.468 -17.321  0.00  0.00    +0.046 A 
ENDBRANCH   7   8
ENDBRANCH   1   7
BRANCH   4  14
ATOM     14  C   UNL     1     -13.823   6.507 -18.048  0.00  0.00    +0.042 C 
BRANCH  14  15
ATOM     15  C   UNL     1     -14.253   7.821 -17.595  0.00  0.00    +0.079 C 
BRANCH  15  16
ATOM     16  C   UNL     1     -15.547   8.183 -17.389  0.00  0.00    +0.139 C 
ATOM     17  O   UNL     1     -16.597   7.746 -17.964  0.00  0.00    -0.297 OA
BRANCH  16  18
ATOM     18  C   UNL     1     -15.866   9.136 -16.276  0.00  0.00    +0.021 C 
ATOM     19  C   UNL     1     -16.496  10.075 -17.261  0.00  0.00    +0.018 C 
ATOM     20  C   UNL     1     -15.237   8.196 -15.291  0.00  0.00    +0.018 C 
ATOM     21  C   UNL     1     -16.186  10.088 -15.162  0.00  0.00    +0.018 C 
ENDBRANCH  16  18
ENDBRANCH  15  16
ENDBRANCH  14  15
ENDBRANCH   4  14
TORSDOF 6
ENDMDL
MODEL 9
REMARK VINA RESULT:      -7.0      1.638      2.243
REMARK  Name = min_compound985.pdb
REMARK  9 active torsions:
REMARK  status: ('A' for Active; 'I' for Inactive)
REMARK    1  A    between atoms: _1  and  _7
REMARK    2  A    between atoms: _4  and  _14
REMARK    3  A    between atoms: _7  and  _8
REMARK    4  A    between atoms: _14  and  _15
REMARK    5  A    between atoms: _15  and  _16
REMARK    6  A    between atoms: _16  and  _18
REMARK    7  A    between atoms: _18  and  _19
REMARK    8  A    between atoms: _18  and  _20
REMARK    9  A    between atoms: _18  and  _21
REMARK                            x       y       z     vdW  Elec       q    Type
REMARK                         _______ _______ _______ _____ _____    ______ ____
ROOT
ATOM      1  C   UNL     1     -14.553   2.630 -16.460  0.00  0.00    +0.128 A 
ATOM      2  C   UNL     1     -14.947   3.941 -16.723  0.00  0.00    +0.046 A 
ATOM      3  C   UNL     1     -16.021   4.507 -16.030  0.00  0.00    +0.007 A 
ATOM      4  C   UNL     1     -16.734   3.771 -15.077  0.00  0.00    -0.047 A 
ATOM      5  C   UNL     1     -16.325   2.455 -14.812  0.00  0.00    +0.007 A 
ATOM      6  C   UNL     1     -15.250   1.881 -15.510  0.00  0.00    +0.046 A 
ENDROOT
BRANCH   1   7
ATOM      7  O   UNL     1     -13.536   2.142 -17.248  0.00  0.00    -0.456 OA
BRANCH   7   8
ATOM      8  C   UNL     1     -12.443   1.551 -16.663  0.00  0.00    +0.128 A 
ATOM      9  C   UNL     1     -12.220   0.210 -16.979  0.00  0.00    +0.046 A 
ATOM     10  C   UNL     1     -11.095  -0.451 -16.483  0.00  0.00    +0.004 A 
ATOM     11  C   UNL     1     -10.185   0.236 -15.679  0.00  0.00    +0.000 A 
ATOM     12  C   UNL     1     -10.395   1.584 -15.381  0.00  0.00    +0.004 A 
ATOM     13  C   UNL     1     -11.518   2.248 -15.883  0.00  0.00    +0.046 A 
ENDBRANCH   7   8
ENDBRANCH   1   7
BRANCH   4  14
ATOM     14  C   UNL     1     -17.879   4.354 -14.350  0.00  0.00    +0.042 C 
BRANCH  14  15
ATOM     15  C   UNL     1     -17.839   5.459 -13.406  0.00  0.00    +0.079 C 
BRANCH  15  16
ATOM     16  C   UNL     1     -16.720   5.891 -12.767  0.00  0.00    +0.139 C 
ATOM     17  O   UNL     1     -16.063   6.967 -12.949  0.00  0.00    -0.297 OA
BRANCH  16  18
ATOM     18  C   UNL     1     -16.196   5.100 -11.604  0.00  0.00    +0.021 C 
ATOM     19  C   UNL     1     -14.859   4.997 -12.276  0.00  0.00    +0.018 C 
ATOM     20  C   UNL     1     -17.533   5.204 -10.932  0.00  0.00    +0.018 C 
ATOM     21  C   UNL     1     -15.673   4.310 -10.442  0.00  0.00    +0.018 C 
ENDBRANCH  16  18
ENDBRANCH  15  16
ENDBRANCH  14  15
ENDBRANCH   4  14
TORSDOF 6
ENDMDL
