MODEL 1
REMARK VINA RESULT:      -7.5      0.000      0.000
REMARK  Name = min_compound912.pdb
REMARK  5 active torsions:
REMARK  status: ('A' for Active; 'I' for Inactive)
REMARK    1  A    between atoms: _2  and  _19
REMARK    2  A    between atoms: _4  and  _21
REMARK    3  A    between atoms: _12  and  _21
REMARK    4  A    between atoms: _16  and  _22
REMARK    5  A    between atoms: _19  and  _20
REMARK                            x       y       z     vdW  Elec       q    Type
REMARK                         _______ _______ _______ _____ _____    ______ ____
ROOT
ATOM      1  O   UNL     1     -12.769   1.959 -20.341  0.00  0.00    -0.270 OA
ATOM      2  C   UNL     1     -12.829   1.878 -19.116  0.00  0.00    +0.245 C 
ATOM      3  N   UNL     1     -12.213   0.836 -18.495  0.00  0.00    -0.297 N 
ATOM      4  H   UNL     1     -11.677   0.257 -19.129  0.00  0.00    +0.150 HD
ATOM      5  C   UNL     1     -11.931   0.777 -17.084  0.00  0.00    +0.087 C 
ATOM      6  C   UNL     1     -11.473  -0.643 -16.667  0.00  0.00    +0.037 C 
ATOM      7  C   UNL     1     -10.027  -0.496 -16.199  0.00  0.00    +0.003 C 
ATOM      8  C   UNL     1      -9.963   0.921 -15.661  0.00  0.00    +0.003 C 
ATOM      9  C   UNL     1     -10.756   1.703 -16.697  0.00  0.00    +0.037 C 
ATOM     10  S   UNL     1     -13.468   1.190 -16.204  0.00  0.00    -0.084 S 
ATOM     11  C   UNL     1     -13.855   2.741 -16.976  0.00  0.00    +0.077 C 
ATOM     12  C   UNL     1     -13.543   2.906 -18.289  0.00  0.00    +0.055 C 
ENDROOT
BRANCH  11  13
ATOM     13  N   UNL     1     -14.584   3.711 -16.268  0.00  0.00    -0.309 N 
ATOM     14  H   UNL     1     -14.160   4.635 -16.300  0.00  0.00    +0.153 HD
BRANCH  13  15
ATOM     15  C   UNL     1     -15.289   3.556 -15.047  0.00  0.00    +0.032 A 
ATOM     16  C   UNL     1     -16.443   2.780 -14.898  0.00  0.00    +0.023 A 
ATOM     17  C   UNL     1     -17.102   2.690 -13.670  0.00  0.00    +0.002 A 
ATOM     18  C   UNL     1     -16.623   3.389 -12.570  0.00  0.00    +0.003 A 
ATOM     19  C   UNL     1     -15.486   4.196 -12.686  0.00  0.00    -0.049 A 
ATOM     20  C   UNL     1     -15.042   4.917 -11.448  0.00  0.00    +0.044 C 
ATOM     21  C   UNL     1     -14.837   4.284 -13.928  0.00  0.00    +0.026 A 
ENDBRANCH  13  15
ENDBRANCH  11  13
BRANCH  12  22
ATOM     22  C   UNL     1     -13.900   4.114 -18.971  0.00  0.00    +0.121 C 
BRANCH  22  23
ATOM     23  N   UNL     1     -14.273   5.330 -19.677  0.00  0.00    -0.326 NA
ATOM     24  H   UNL     1     -15.268   5.510 -19.542  0.00  0.00    +0.119 HD
ATOM     25  H   UNL     1     -13.733   6.114 -19.311  0.00  0.00    +0.119 HD
ENDBRANCH  22  23
ENDBRANCH  12  22
TORSDOF 4
ENDMDL
MODEL 2
REMARK VINA RESULT:      -7.0      2.228      2.556
REMARK  Name = min_compound912.pdb
REMARK  5 active torsions:
REMARK  status: ('A' for Active; 'I' for Inactive)
REMARK    1  A    between atoms: _2  and  _19
REMARK    2  A    between atoms: _4  and  _21
REMARK    3  A    between atoms: _12  and  _21
REMARK    4  A    between atoms: _16  and  _22
REMARK    5  A    between atoms: _19  and  _20
REMARK                            x       y       z     vdW  Elec       q    Type
REMARK                         _______ _______ _______ _____ _____    ______ ____
ROOT
ATOM      1  O   UNL     1     -11.973   6.601 -18.599  0.00  0.00    -0.270 OA
ATOM      2  C   UNL     1     -12.462   5.638 -18.010  0.00  0.00    +0.245 C 
ATOM      3  N   UNL     1     -11.825   4.438 -18.073  0.00  0.00    -0.297 N 
ATOM      4  H   UNL     1     -10.934   4.485 -18.551  0.00  0.00    +0.150 HD
ATOM      5  C   UNL     1     -12.094   3.325 -17.200  0.00  0.00    +0.087 C 
ATOM      6  C   UNL     1     -11.396   2.037 -17.709  0.00  0.00    +0.037 C 
ATOM      7  C   UNL     1     -10.364   1.672 -16.644  0.00  0.00    +0.003 C 
ATOM      8  C   UNL     1     -10.967   2.203 -15.358  0.00  0.00    +0.003 C 
ATOM      9  C   UNL     1     -11.517   3.556 -15.785  0.00  0.00    +0.037 C 
ATOM     10  S   UNL     1     -13.893   3.063 -17.190  0.00  0.00    -0.084 S 
ATOM     11  C   UNL     1     -14.437   4.694 -16.753  0.00  0.00    +0.077 C 
ATOM     12  C   UNL     1     -13.724   5.759 -17.209  0.00  0.00    +0.055 C 
ENDROOT
BRANCH  11  13
ATOM     13  N   UNL     1     -15.650   4.866 -16.064  0.00  0.00    -0.309 N 
ATOM     14  H   UNL     1     -16.021   5.811 -16.133  0.00  0.00    +0.153 HD
BRANCH  13  15
ATOM     15  C   UNL     1     -16.040   4.294 -14.826  0.00  0.00    +0.032 A 
ATOM     16  C   UNL     1     -17.025   3.310 -14.690  0.00  0.00    +0.023 A 
ATOM     17  C   UNL     1     -17.378   2.806 -13.437  0.00  0.00    +0.002 A 
ATOM     18  C   UNL     1     -16.758   3.291 -12.292  0.00  0.00    +0.003 A 
ATOM     19  C   UNL     1     -15.786   4.294 -12.385  0.00  0.00    -0.049 A 
ATOM     20  C   UNL     1     -15.173   4.758 -11.098  0.00  0.00    +0.044 C 
ATOM     21  C   UNL     1     -15.446   4.797 -13.651  0.00  0.00    +0.026 A 
ENDBRANCH  13  15
ENDBRANCH  11  13
BRANCH  12  22
ATOM     22  C   UNL     1     -14.165   7.094 -16.940  0.00  0.00    +0.121 C 
BRANCH  22  23
ATOM     23  N   UNL     1     -14.603   8.457 -16.682  0.00  0.00    -0.326 NA
ATOM     24  H   UNL     1     -14.112   8.823 -15.866  0.00  0.00    +0.119 HD
ATOM     25  H   UNL     1     -14.395   9.040 -17.493  0.00  0.00    +0.119 HD
ENDBRANCH  22  23
ENDBRANCH  12  22
TORSDOF 4
ENDMDL
MODEL 3
REMARK VINA RESULT:      -6.8      3.352      6.146
REMARK  Name = min_compound912.pdb
REMARK  5 active torsions:
REMARK  status: ('A' for Active; 'I' for Inactive)
REMARK    1  A    between atoms: _2  and  _19
REMARK    2  A    between atoms: _4  and  _21
REMARK    3  A    between atoms: _12  and  _21
REMARK    4  A    between atoms: _16  and  _22
REMARK    5  A    between atoms: _19  and  _20
REMARK                            x       y       z     vdW  Elec       q    Type
REMARK                         _______ _______ _______ _____ _____    ______ ____
ROOT
ATOM      1  O   UNL     1     -13.751   4.911 -21.805  0.00  0.00    -0.270 OA
ATOM      2  C   UNL     1     -13.677   4.869 -20.578  0.00  0.00    +0.245 C 
ATOM      3  N   UNL     1     -13.626   6.036 -19.883  0.00  0.00    -0.297 N 
ATOM      4  H   UNL     1     -13.740   6.853 -20.469  0.00  0.00    +0.150 HD
ATOM      5  C   UNL     1     -13.852   6.154 -18.466  0.00  0.00    +0.087 C 
ATOM      6  C   UNL     1     -13.455   7.562 -17.953  0.00  0.00    +0.037 C 
ATOM      7  C   UNL     1     -14.750   8.210 -17.467  0.00  0.00    +0.003 C 
ATOM      8  C   UNL     1     -15.596   7.034 -17.015  0.00  0.00    +0.003 C 
ATOM      9  C   UNL     1     -15.350   6.010 -18.113  0.00  0.00    +0.037 C 
ATOM     10  S   UNL     1     -12.815   4.907 -17.644  0.00  0.00    -0.084 S 
ATOM     11  C   UNL     1     -13.337   3.452 -18.516  0.00  0.00    +0.077 C 
ATOM     12  C   UNL     1     -13.666   3.568 -19.831  0.00  0.00    +0.055 C 
ENDROOT
BRANCH  11  13
ATOM     13  N   UNL     1     -13.278   2.198 -17.884  0.00  0.00    -0.309 N 
ATOM     14  H   UNL     1     -14.147   1.940 -17.421  0.00  0.00    +0.153 HD
BRANCH  13  15
ATOM     15  C   UNL     1     -12.184   1.620 -17.192  0.00  0.00    +0.032 A 
ATOM     16  C   UNL     1     -11.689   2.088 -15.970  0.00  0.00    +0.023 A 
ATOM     17  C   UNL     1     -10.591   1.485 -15.354  0.00  0.00    +0.002 A 
ATOM     18  C   UNL     1      -9.959   0.407 -15.959  0.00  0.00    +0.003 A 
ATOM     19  C   UNL     1     -10.408  -0.075 -17.193  0.00  0.00    -0.049 A 
ATOM     20  C   UNL     1      -9.664  -1.240 -17.773  0.00  0.00    +0.044 C 
ATOM     21  C   UNL     1     -11.509   0.546 -17.806  0.00  0.00    +0.026 A 
ENDBRANCH  13  15
ENDBRANCH  11  13
BRANCH  12  22
ATOM     22  C   UNL     1     -14.024   2.409 -20.592  0.00  0.00    +0.121 C 
BRANCH  22  23
ATOM     23  N   UNL     1     -14.407   1.238 -21.364  0.00  0.00    -0.326 NA
ATOM     24  H   UNL     1     -13.573   0.698 -21.600  0.00  0.00    +0.119 HD
ATOM     25  H   UNL     1     -15.041   0.660 -20.814  0.00  0.00    +0.119 HD
ENDBRANCH  22  23
ENDBRANCH  12  22
TORSDOF 4
ENDMDL
MODEL 4
REMARK VINA RESULT:      -6.7     12.948     15.835
REMARK  Name = min_compound912.pdb
REMARK  5 active torsions:
REMARK  status: ('A' for Active; 'I' for Inactive)
REMARK    1  A    between atoms: _2  and  _19
REMARK    2  A    between atoms: _4  and  _21
REMARK    3  A    between atoms: _12  and  _21
REMARK    4  A    between atoms: _16  and  _22
REMARK    5  A    between atoms: _19  and  _20
REMARK                            x       y       z     vdW  Elec       q    Type
REMARK                         _______ _______ _______ _____ _____    ______ ____
ROOT
ATOM      1  O   UNL     1     -15.520  -4.453   0.711  0.00  0.00    -0.270 OA
ATOM      2  C   UNL     1     -15.963  -3.822  -0.246  0.00  0.00    +0.245 C 
ATOM      3  N   UNL     1     -17.275  -3.461  -0.244  0.00  0.00    -0.297 N 
ATOM      4  H   UNL     1     -17.748  -3.689   0.621  0.00  0.00    +0.150 HD
ATOM      5  C   UNL     1     -17.851  -2.474  -1.119  0.00  0.00    +0.087 C 
ATOM      6  C   UNL     1     -19.399  -2.499  -1.044  0.00  0.00    +0.037 C 
ATOM      7  C   UNL     1     -19.811  -1.149  -0.459  0.00  0.00    +0.003 C 
ATOM      8  C   UNL     1     -18.712  -0.207  -0.913  0.00  0.00    +0.003 C 
ATOM      9  C   UNL     1     -17.456  -1.040  -0.701  0.00  0.00    +0.037 C 
ATOM     10  S   UNL     1     -17.332  -2.878  -2.814  0.00  0.00    -0.084 S 
ATOM     11  C   UNL     1     -15.573  -2.953  -2.585  0.00  0.00    +0.077 C 
ATOM     12  C   UNL     1     -15.094  -3.422  -1.401  0.00  0.00    +0.055 C 
ENDROOT
BRANCH  11  13
ATOM     13  N   UNL     1     -14.714  -2.657  -3.657  0.00  0.00    -0.309 N 
ATOM     14  H   UNL     1     -13.798  -3.090  -3.569  0.00  0.00    +0.153 HD
BRANCH  13  15
ATOM     15  C   UNL     1     -14.595  -1.437  -4.369  0.00  0.00    +0.032 A 
ATOM     16  C   UNL     1     -14.656  -1.331  -5.763  0.00  0.00    +0.023 A 
ATOM     17  C   UNL     1     -14.507  -0.099  -6.403  0.00  0.00    +0.002 A 
ATOM     18  C   UNL     1     -14.280   1.050  -5.657  0.00  0.00    +0.003 A 
ATOM     19  C   UNL     1     -14.187   0.981  -4.262  0.00  0.00    -0.049 A 
ATOM     20  C   UNL     1     -13.937   2.270  -3.539  0.00  0.00    +0.044 C 
ATOM     21  C   UNL     1     -14.331  -0.266  -3.632  0.00  0.00    +0.026 A 
ENDBRANCH  13  15
ENDBRANCH  11  13
BRANCH  12  22
ATOM     22  C   UNL     1     -13.684  -3.567  -1.198  0.00  0.00    +0.121 C 
BRANCH  22  23
ATOM     23  N   UNL     1     -12.249  -3.696  -0.998  0.00  0.00    -0.326 NA
ATOM     24  H   UNL     1     -11.928  -2.968  -0.358  0.00  0.00    +0.119 HD
ATOM     25  H   UNL     1     -12.042  -4.612  -0.602  0.00  0.00    +0.119 HD
ENDBRANCH  22  23
ENDBRANCH  12  22
TORSDOF 4
ENDMDL
MODEL 5
REMARK VINA RESULT:      -6.7      2.779      5.947
REMARK  Name = min_compound912.pdb
REMARK  5 active torsions:
REMARK  status: ('A' for Active; 'I' for Inactive)
REMARK    1  A    between atoms: _2  and  _19
REMARK    2  A    between atoms: _4  and  _21
REMARK    3  A    between atoms: _12  and  _21
REMARK    4  A    between atoms: _16  and  _22
REMARK    5  A    between atoms: _19  and  _20
REMARK                            x       y       z     vdW  Elec       q    Type
REMARK                         _______ _______ _______ _____ _____    ______ ____
ROOT
ATOM      1  O   UNL     1     -14.026   3.637 -14.782  0.00  0.00    -0.270 OA
ATOM      2  C   UNL     1     -13.507   3.072 -15.742  0.00  0.00    +0.245 C 
ATOM      3  N   UNL     1     -12.270   2.526 -15.593  0.00  0.00    -0.297 N 
ATOM      4  H   UNL     1     -11.927   2.574 -14.641  0.00  0.00    +0.150 HD
ATOM      5  C   UNL     1     -11.679   1.580 -16.503  0.00  0.00    +0.087 C 
ATOM      6  C   UNL     1     -10.176   1.369 -16.190  0.00  0.00    +0.037 C 
ATOM      7  C   UNL     1     -10.041  -0.088 -15.752  0.00  0.00    +0.003 C 
ATOM      8  C   UNL     1     -11.155  -0.796 -16.500  0.00  0.00    +0.003 C 
ATOM      9  C   UNL     1     -12.315   0.179 -16.364  0.00  0.00    +0.037 C 
ATOM     10  S   UNL     1     -11.847   2.262 -18.180  0.00  0.00    -0.084 S 
ATOM     11  C   UNL     1     -13.596   2.565 -18.214  0.00  0.00    +0.077 C 
ATOM     12  C   UNL     1     -14.208   2.949 -17.062  0.00  0.00    +0.055 C 
ENDROOT
BRANCH  11  13
ATOM     13  N   UNL     1     -14.288   2.532 -19.436  0.00  0.00    -0.309 N 
ATOM     14  H   UNL     1     -15.017   1.824 -19.467  0.00  0.00    +0.153 HD
BRANCH  13  15
ATOM     15  C   UNL     1     -13.768   2.731 -20.740  0.00  0.00    +0.032 A 
ATOM     16  C   UNL     1     -13.403   1.696 -21.608  0.00  0.00    +0.023 A 
ATOM     17  C   UNL     1     -12.873   1.963 -22.872  0.00  0.00    +0.002 A 
ATOM     18  C   UNL     1     -12.686   3.275 -23.286  0.00  0.00    +0.003 A 
ATOM     19  C   UNL     1     -13.015   4.338 -22.437  0.00  0.00    -0.049 A 
ATOM     20  C   UNL     1     -12.777   5.721 -22.965  0.00  0.00    +0.044 C 
ATOM     21  C   UNL     1     -13.540   4.055 -21.165  0.00  0.00    +0.026 A 
ENDBRANCH  13  15
ENDBRANCH  11  13
BRANCH  12  22
ATOM     22  C   UNL     1     -15.604   3.273 -17.058  0.00  0.00    +0.121 C 
BRANCH  22  23
ATOM     23  N   UNL     1     -17.024   3.585 -17.042  0.00  0.00    -0.326 NA
ATOM     24  H   UNL     1     -17.370   3.547 -16.083  0.00  0.00    +0.119 HD
ATOM     25  H   UNL     1     -17.170   4.522 -17.418  0.00  0.00    +0.119 HD
ENDBRANCH  22  23
ENDBRANCH  12  22
TORSDOF 4
ENDMDL
MODEL 6
REMARK VINA RESULT:      -6.7      3.253      6.005
REMARK  Name = min_compound912.pdb
REMARK  5 active torsions:
REMARK  status: ('A' for Active; 'I' for Inactive)
REMARK    1  A    between atoms: _2  and  _19
REMARK    2  A    between atoms: _4  and  _21
REMARK    3  A    between atoms: _12  and  _21
REMARK    4  A    between atoms: _16  and  _22
REMARK    5  A    between atoms: _19  and  _20
REMARK                            x       y       z     vdW  Elec       q    Type
REMARK                         _______ _______ _______ _____ _____    ______ ____
ROOT
ATOM      1  O   UNL     1     -14.660   3.738 -14.751  0.00  0.00    -0.270 OA
ATOM      2  C   UNL     1     -13.671   3.780 -15.479  0.00  0.00    +0.245 C 
ATOM      3  N   UNL     1     -12.743   2.789 -15.384  0.00  0.00    -0.297 N 
ATOM      4  H   UNL     1     -13.018   2.047 -14.753  0.00  0.00    +0.150 HD
ATOM      5  C   UNL     1     -11.719   2.533 -16.363  0.00  0.00    +0.087 C 
ATOM      6  C   UNL     1     -10.675   1.521 -15.825  0.00  0.00    +0.037 C 
ATOM      7  C   UNL     1     -10.798   0.283 -16.711  0.00  0.00    +0.003 C 
ATOM      8  C   UNL     1     -11.258   0.838 -18.046  0.00  0.00    +0.003 C 
ATOM      9  C   UNL     1     -12.296   1.871 -17.634  0.00  0.00    +0.037 C 
ATOM     10  S   UNL     1     -10.891   4.114 -16.710  0.00  0.00    -0.084 S 
ATOM     11  C   UNL     1     -12.298   5.111 -17.128  0.00  0.00    +0.077 C 
ATOM     12  C   UNL     1     -13.472   4.877 -16.482  0.00  0.00    +0.055 C 
ENDROOT
BRANCH  11  13
ATOM     13  N   UNL     1     -12.150   6.196 -18.008  0.00  0.00    -0.309 N 
ATOM     14  H   UNL     1     -12.578   7.053 -17.666  0.00  0.00    +0.153 HD
BRANCH  13  15
ATOM     15  C   UNL     1     -12.188   6.183 -19.426  0.00  0.00    +0.032 A 
ATOM     16  C   UNL     1     -12.846   5.209 -20.186  0.00  0.00    +0.023 A 
ATOM     17  C   UNL     1     -12.823   5.242 -21.581  0.00  0.00    +0.002 A 
ATOM     18  C   UNL     1     -12.128   6.246 -22.243  0.00  0.00    +0.003 A 
ATOM     19  C   UNL     1     -11.438   7.223 -21.518  0.00  0.00    -0.049 A 
ATOM     20  C   UNL     1     -10.713   8.266 -22.315  0.00  0.00    +0.044 C 
ATOM     21  C   UNL     1     -11.462   7.174 -20.115  0.00  0.00    +0.026 A 
ENDBRANCH  13  15
ENDBRANCH  11  13
BRANCH  12  22
ATOM     22  C   UNL     1     -14.614   5.703 -16.736  0.00  0.00    +0.121 C 
BRANCH  22  23
ATOM     23  N   UNL     1     -15.775   6.534 -17.012  0.00  0.00    -0.326 NA
ATOM     24  H   UNL     1     -15.515   7.518 -16.936  0.00  0.00    +0.119 HD
ATOM     25  H   UNL     1     -16.113   6.344 -17.955  0.00  0.00    +0.119 HD
ENDBRANCH  22  23
ENDBRANCH  12  22
TORSDOF 4
ENDMDL
MODEL 7
REMARK VINA RESULT:      -6.6      2.301      4.217
REMARK  Name = min_compound912.pdb
REMARK  5 active torsions:
REMARK  status: ('A' for Active; 'I' for Inactive)
REMARK    1  A    between atoms: _2  and  _19
REMARK    2  A    between atoms: _4  and  _21
REMARK    3  A    between atoms: _12  and  _21
REMARK    4  A    between atoms: _16  and  _22
REMARK    5  A    between atoms: _19  and  _20
REMARK                            x       y       z     vdW  Elec       q    Type
REMARK                         _______ _______ _______ _____ _____    ______ ____
ROOT
ATOM      1  O   UNL     1     -10.296   2.390 -16.744  0.00  0.00    -0.270 OA
ATOM      2  C   UNL     1     -11.376   2.968 -16.848  0.00  0.00    +0.245 C 
ATOM      3  N   UNL     1     -11.387   4.281 -17.203  0.00  0.00    -0.297 N 
ATOM      4  H   UNL     1     -10.467   4.637 -17.434  0.00  0.00    +0.150 HD
ATOM      5  C   UNL     1     -12.550   4.993 -17.664  0.00  0.00    +0.087 C 
ATOM      6  C   UNL     1     -12.282   6.519 -17.724  0.00  0.00    +0.037 C 
ATOM      7  C   UNL     1     -12.373   6.901 -19.199  0.00  0.00    +0.003 C 
ATOM      8  C   UNL     1     -13.355   5.899 -19.774  0.00  0.00    +0.003 C 
ATOM      9  C   UNL     1     -12.926   4.599 -19.110  0.00  0.00    +0.037 C 
ATOM     10  S   UNL     1     -13.890   4.671 -16.478  0.00  0.00    -0.084 S 
ATOM     11  C   UNL     1     -13.872   2.896 -16.471  0.00  0.00    +0.077 C 
ATOM     12  C   UNL     1     -12.678   2.260 -16.616  0.00  0.00    +0.055 C 
ENDROOT
BRANCH  11  13
ATOM     13  N   UNL     1     -15.050   2.185 -16.189  0.00  0.00    -0.309 N 
ATOM     14  H   UNL     1     -15.338   1.567 -16.945  0.00  0.00    +0.153 HD
BRANCH  13  15
ATOM     15  C   UNL     1     -16.196   2.637 -15.486  0.00  0.00    +0.032 A 
ATOM     16  C   UNL     1     -17.340   3.158 -16.099  0.00  0.00    +0.023 A 
ATOM     17  C   UNL     1     -18.425   3.609 -15.345  0.00  0.00    +0.002 A 
ATOM     18  C   UNL     1     -18.378   3.557 -13.958  0.00  0.00    +0.003 A 
ATOM     19  C   UNL     1     -17.241   3.066 -13.307  0.00  0.00    -0.049 A 
ATOM     20  C   UNL     1     -17.277   3.050 -11.808  0.00  0.00    +0.044 C 
ATOM     21  C   UNL     1     -16.154   2.623 -14.078  0.00  0.00    +0.026 A 
ENDBRANCH  13  15
ENDBRANCH  11  13
BRANCH  12  22
ATOM     22  C   UNL     1     -12.606   0.832 -16.546  0.00  0.00    +0.121 C 
BRANCH  22  23
ATOM     23  N   UNL     1     -12.552  -0.620 -16.480  0.00  0.00    -0.326 NA
ATOM     24  H   UNL     1     -11.991  -0.975 -17.255  0.00  0.00    +0.119 HD
ATOM     25  H   UNL     1     -12.129  -0.905 -15.597  0.00  0.00    +0.119 HD
ENDBRANCH  22  23
ENDBRANCH  12  22
TORSDOF 4
ENDMDL
MODEL 8
REMARK VINA RESULT:      -6.6      3.949      7.046
REMARK  Name = min_compound912.pdb
REMARK  5 active torsions:
REMARK  status: ('A' for Active; 'I' for Inactive)
REMARK    1  A    between atoms: _2  and  _19
REMARK    2  A    between atoms: _4  and  _21
REMARK    3  A    between atoms: _12  and  _21
REMARK    4  A    between atoms: _16  and  _22
REMARK    5  A    between atoms: _19  and  _20
REMARK                            x       y       z     vdW  Elec       q    Type
REMARK                         _______ _______ _______ _____ _____    ______ ____
ROOT
ATOM      1  O   UNL     1     -16.896   7.352 -12.528  0.00  0.00    -0.270 OA
ATOM      2  C   UNL     1     -16.556   6.843 -13.594  0.00  0.00    +0.245 C 
ATOM      3  N   UNL     1     -16.845   7.493 -14.754  0.00  0.00    -0.297 N 
ATOM      4  H   UNL     1     -17.256   8.406 -14.606  0.00  0.00    +0.150 HD
ATOM      5  C   UNL     1     -16.249   7.192 -16.029  0.00  0.00    +0.087 C 
ATOM      6  C   UNL     1     -16.989   7.925 -17.177  0.00  0.00    +0.037 C 
ATOM      7  C   UNL     1     -15.977   8.906 -17.766  0.00  0.00    +0.003 C 
ATOM      8  C   UNL     1     -14.639   8.235 -17.525  0.00  0.00    +0.003 C 
ATOM      9  C   UNL     1     -14.790   7.695 -16.111  0.00  0.00    +0.037 C 
ATOM     10  S   UNL     1     -16.387   5.397 -16.284  0.00  0.00    -0.084 S 
ATOM     11  C   UNL     1     -15.634   4.816 -14.785  0.00  0.00    +0.077 C 
ATOM     12  C   UNL     1     -15.812   5.542 -13.648  0.00  0.00    +0.055 C 
ENDROOT
BRANCH  11  13
ATOM     13  N   UNL     1     -14.986   3.570 -14.764  0.00  0.00    -0.309 N 
ATOM     14  H   UNL     1     -14.930   3.161 -13.834  0.00  0.00    +0.153 HD
BRANCH  13  15
ATOM     15  C   UNL     1     -13.870   3.152 -15.532  0.00  0.00    +0.032 A 
ATOM     16  C   UNL     1     -13.856   2.016 -16.349  0.00  0.00    +0.023 A 
ATOM     17  C   UNL     1     -12.713   1.649 -17.060  0.00  0.00    +0.002 A 
ATOM     18  C   UNL     1     -11.555   2.407 -16.957  0.00  0.00    +0.003 A 
ATOM     19  C   UNL     1     -11.520   3.537 -16.131  0.00  0.00    -0.049 A 
ATOM     20  C   UNL     1     -10.228   4.293 -16.078  0.00  0.00    +0.044 C 
ATOM     21  C   UNL     1     -12.675   3.890 -15.414  0.00  0.00    +0.026 A 
ENDBRANCH  13  15
ENDBRANCH  11  13
BRANCH  12  22
ATOM     22  C   UNL     1     -15.283   5.075 -12.402  0.00  0.00    +0.121 C 
BRANCH  22  23
ATOM     23  N   UNL     1     -14.741   4.620 -11.131  0.00  0.00    -0.326 NA
ATOM     24  H   UNL     1     -14.138   5.344 -10.740  0.00  0.00    +0.119 HD
ATOM     25  H   UNL     1     -15.506   4.428 -10.485  0.00  0.00    +0.119 HD
ENDBRANCH  22  23
ENDBRANCH  12  22
TORSDOF 4
ENDMDL
MODEL 9
REMARK VINA RESULT:      -6.6      2.216      6.162
REMARK  Name = min_compound912.pdb
REMARK  5 active torsions:
REMARK  status: ('A' for Active; 'I' for Inactive)
REMARK    1  A    between atoms: _2  and  _19
REMARK    2  A    between atoms: _4  and  _21
REMARK    3  A    between atoms: _12  and  _21
REMARK    4  A    between atoms: _16  and  _22
REMARK    5  A    between atoms: _19  and  _20
REMARK                            x       y       z     vdW  Elec       q    Type
REMARK                         _______ _______ _______ _____ _____    ______ ____
ROOT
ATOM      1  O   UNL     1     -17.014   6.105 -17.074  0.00  0.00    -0.270 OA
ATOM      2  C   UNL     1     -16.396   5.290 -16.392  0.00  0.00    +0.245 C 
ATOM      3  N   UNL     1     -16.396   5.432 -15.039  0.00  0.00    -0.297 N 
ATOM      4  H   UNL     1     -16.998   6.180 -14.718  0.00  0.00    +0.150 HD
ATOM      5  C   UNL     1     -15.995   4.408 -14.110  0.00  0.00    +0.087 C 
ATOM      6  C   UNL     1     -15.857   4.979 -12.676  0.00  0.00    +0.037 C 
ATOM      7  C   UNL     1     -16.930   4.282 -11.843  0.00  0.00    +0.003 C 
ATOM      8  C   UNL     1     -17.091   2.932 -12.515  0.00  0.00    +0.003 C 
ATOM      9  C   UNL     1     -17.061   3.295 -13.993  0.00  0.00    +0.037 C 
ATOM     10  S   UNL     1     -14.381   3.777 -14.658  0.00  0.00    -0.084 S 
ATOM     11  C   UNL     1     -14.770   3.359 -16.339  0.00  0.00    +0.077 C 
ATOM     12  C   UNL     1     -15.665   4.135 -17.008  0.00  0.00    +0.055 C 
ENDROOT
BRANCH  11  13
ATOM     13  N   UNL     1     -14.064   2.331 -16.986  0.00  0.00    -0.309 N 
ATOM     14  H   UNL     1     -14.569   1.448 -17.008  0.00  0.00    +0.153 HD
BRANCH  13  15
ATOM     15  C   UNL     1     -12.669   2.077 -16.956  0.00  0.00    +0.032 A 
ATOM     16  C   UNL     1     -11.688   3.043 -17.201  0.00  0.00    +0.023 A 
ATOM     17  C   UNL     1     -10.330   2.719 -17.180  0.00  0.00    +0.002 A 
ATOM     18  C   UNL     1      -9.930   1.414 -16.925  0.00  0.00    +0.003 A 
ATOM     19  C   UNL     1     -10.882   0.413 -16.700  0.00  0.00    -0.049 A 
ATOM     20  C   UNL     1     -10.360  -0.967 -16.436  0.00  0.00    +0.044 C 
ATOM     21  C   UNL     1     -12.245   0.752 -16.732  0.00  0.00    +0.026 A 
ENDBRANCH  13  15
ENDBRANCH  11  13
BRANCH  12  22
ATOM     22  C   UNL     1     -15.956   3.878 -18.387  0.00  0.00    +0.121 C 
BRANCH  22  23
ATOM     23  N   UNL     1     -16.233   3.615 -19.790  0.00  0.00    -0.326 NA
ATOM     24  H   UNL     1     -17.007   4.202 -20.100  0.00  0.00    +0.119 HD
ATOM     25  H   UNL     1     -15.404   3.825 -20.345  0.00  0.00    +0.119 HD
ENDBRANCH  22  23
ENDBRANCH  12  22
TORSDOF 4
ENDMDL
