MODEL 1
REMARK VINA RESULT:      -8.2      0.000      0.000
REMARK  Name = min_compound955.pdb
REMARK  3 active torsions:
REMARK  status: ('A' for Active; 'I' for Inactive)
REMARK    1  A    between atoms: _11  and  _19
REMARK    2  A    between atoms: _12  and  _20
REMARK    3  A    between atoms: _15  and  _20
REMARK                            x       y       z     vdW  Elec       q    Type
REMARK                         _______ _______ _______ _____ _____    ______ ____
ROOT
ATOM      1  O   UNL     1     -10.703   4.200 -17.442  0.00  0.00    -0.619 OA
ATOM      2  N   UNL     1     -11.553   3.309 -17.098  0.00  0.00    -0.157 N 
ATOM      3  C   UNL     1     -11.152   1.960 -17.023  0.00  0.00    +0.292 A 
ATOM      4  C   UNL     1     -12.080   0.976 -16.637  0.00  0.00    +0.292 A 
ATOM      5  C   UNL     1     -11.668  -0.376 -16.608  0.00  0.00    +0.086 A 
ATOM      6  C   UNL     1     -10.367  -0.747 -16.949  0.00  0.00    +0.007 A 
ATOM      7  C   UNL     1      -9.448   0.226 -17.320  0.00  0.00    +0.007 A 
ATOM      8  N   UNL     1     -13.398   1.348 -16.298  0.00  0.00    -0.157 N 
ATOM      9  O   UNL     1     -14.239   0.441 -15.965  0.00  0.00    -0.619 OA
ATOM     10  C   UNL     1     -13.798   2.692 -16.354  0.00  0.00    +0.268 A 
ATOM     11  C   UNL     1      -9.834   1.566 -17.353  0.00  0.00    +0.086 A 
ATOM     12  C   UNL     1     -12.878   3.665 -16.813  0.00  0.00    +0.261 A 
ATOM     13  C   UNL     1     -13.223   5.111 -17.019  0.00  0.00    +0.130 C 
ENDROOT
BRANCH  10  14
ATOM     14  C   UNL     1     -15.260   2.918 -16.033  0.00  0.00    +0.150 C 
BRANCH  14  15
ATOM     15  C   UNL     1     -15.666   3.278 -14.622  0.00  0.00    -0.037 A 
ATOM     16  C   UNL     1     -16.744   2.611 -14.015  0.00  0.00    +0.004 A 
ATOM     17  C   UNL     1     -17.122   2.910 -12.706  0.00  0.00    +0.000 A 
ATOM     18  C   UNL     1     -16.419   3.869 -11.982  0.00  0.00    +0.000 A 
ATOM     19  C   UNL     1     -15.332   4.522 -12.562  0.00  0.00    +0.000 A 
ATOM     20  C   UNL     1     -14.949   4.223 -13.873  0.00  0.00    +0.004 A 
ENDBRANCH  14  15
ENDBRANCH  10  14
TORSDOF 2
ENDMDL
MODEL 2
REMARK VINA RESULT:      -7.7      2.690      6.265
REMARK  Name = min_compound955.pdb
REMARK  3 active torsions:
REMARK  status: ('A' for Active; 'I' for Inactive)
REMARK    1  A    between atoms: _11  and  _19
REMARK    2  A    between atoms: _12  and  _20
REMARK    3  A    between atoms: _15  and  _20
REMARK                            x       y       z     vdW  Elec       q    Type
REMARK                         _______ _______ _______ _____ _____    ______ ____
ROOT
ATOM      1  O   UNL     1     -15.385   3.459 -17.571  0.00  0.00    -0.619 OA
ATOM      2  N   UNL     1     -14.186   3.796 -17.280  0.00  0.00    -0.157 N 
ATOM      3  C   UNL     1     -13.672   5.015 -17.766  0.00  0.00    +0.292 A 
ATOM      4  C   UNL     1     -12.357   5.395 -17.443  0.00  0.00    +0.292 A 
ATOM      5  C   UNL     1     -11.846   6.602 -17.975  0.00  0.00    +0.086 A 
ATOM      6  C   UNL     1     -12.618   7.415 -18.804  0.00  0.00    +0.007 A 
ATOM      7  C   UNL     1     -13.921   7.044 -19.114  0.00  0.00    +0.007 A 
ATOM      8  N   UNL     1     -11.572   4.571 -16.610  0.00  0.00    -0.157 N 
ATOM      9  O   UNL     1     -10.370   4.919 -16.337  0.00  0.00    -0.619 OA
ATOM     10  C   UNL     1     -12.085   3.365 -16.109  0.00  0.00    +0.268 A 
ATOM     11  C   UNL     1     -14.444   5.858 -18.599  0.00  0.00    +0.086 A 
ATOM     12  C   UNL     1     -13.383   2.955 -16.499  0.00  0.00    +0.261 A 
ATOM     13  C   UNL     1     -13.995   1.639 -16.116  0.00  0.00    +0.130 C 
ENDROOT
BRANCH  10  14
ATOM     14  C   UNL     1     -11.096   2.560 -15.293  0.00  0.00    +0.150 C 
BRANCH  14  15
ATOM     15  C   UNL     1     -10.450   1.337 -15.903  0.00  0.00    -0.037 A 
ATOM     16  C   UNL     1      -9.911   1.406 -17.200  0.00  0.00    +0.004 A 
ATOM     17  C   UNL     1      -9.291   0.297 -17.774  0.00  0.00    +0.000 A 
ATOM     18  C   UNL     1      -9.188  -0.891 -17.056  0.00  0.00    +0.000 A 
ATOM     19  C   UNL     1      -9.696  -0.968 -15.760  0.00  0.00    +0.000 A 
ATOM     20  C   UNL     1     -10.317   0.143 -15.180  0.00  0.00    +0.004 A 
ENDBRANCH  14  15
ENDBRANCH  10  14
TORSDOF 2
ENDMDL
MODEL 3
REMARK VINA RESULT:      -7.4      3.406      6.011
REMARK  Name = min_compound955.pdb
REMARK  3 active torsions:
REMARK  status: ('A' for Active; 'I' for Inactive)
REMARK    1  A    between atoms: _11  and  _19
REMARK    2  A    between atoms: _12  and  _20
REMARK    3  A    between atoms: _15  and  _20
REMARK                            x       y       z     vdW  Elec       q    Type
REMARK                         _______ _______ _______ _____ _____    ______ ____
ROOT
ATOM      1  O   UNL     1     -11.600   6.215 -17.440  0.00  0.00    -0.619 OA
ATOM      2  N   UNL     1     -12.119   5.231 -18.073  0.00  0.00    -0.157 N 
ATOM      3  C   UNL     1     -12.603   5.428 -19.382  0.00  0.00    +0.292 A 
ATOM      4  C   UNL     1     -13.167   4.349 -20.087  0.00  0.00    +0.292 A 
ATOM      5  C   UNL     1     -13.685   4.577 -21.383  0.00  0.00    +0.086 A 
ATOM      6  C   UNL     1     -13.644   5.842 -21.969  0.00  0.00    +0.007 A 
ATOM      7  C   UNL     1     -13.076   6.905 -21.277  0.00  0.00    +0.007 A 
ATOM      8  N   UNL     1     -13.216   3.071 -19.492  0.00  0.00    -0.157 N 
ATOM      9  O   UNL     1     -13.748   2.100 -20.137  0.00  0.00    -0.619 OA
ATOM     10  C   UNL     1     -12.719   2.866 -18.196  0.00  0.00    +0.268 A 
ATOM     11  C   UNL     1     -12.559   6.701 -19.998  0.00  0.00    +0.086 A 
ATOM     12  C   UNL     1     -12.220   3.973 -17.467  0.00  0.00    +0.261 A 
ATOM     13  C   UNL     1     -11.764   3.897 -16.039  0.00  0.00    +0.130 C 
ENDROOT
BRANCH  10  14
ATOM     14  C   UNL     1     -12.912   1.458 -17.673  0.00  0.00    +0.150 C 
BRANCH  14  15
ATOM     15  C   UNL     1     -11.706   0.644 -17.263  0.00  0.00    -0.037 A 
ATOM     16  C   UNL     1     -10.432   0.999 -17.738  0.00  0.00    +0.004 A 
ATOM     17  C   UNL     1      -9.302   0.278 -17.356  0.00  0.00    +0.000 A 
ATOM     18  C   UNL     1      -9.427  -0.801 -16.484  0.00  0.00    +0.000 A 
ATOM     19  C   UNL     1     -10.682  -1.150 -15.986  0.00  0.00    +0.000 A 
ATOM     20  C   UNL     1     -11.816  -0.427 -16.365  0.00  0.00    +0.004 A 
ENDBRANCH  14  15
ENDBRANCH  10  14
TORSDOF 2
ENDMDL
MODEL 4
REMARK VINA RESULT:      -7.4      2.337      6.217
REMARK  Name = min_compound955.pdb
REMARK  3 active torsions:
REMARK  status: ('A' for Active; 'I' for Inactive)
REMARK    1  A    between atoms: _11  and  _19
REMARK    2  A    between atoms: _12  and  _20
REMARK    3  A    between atoms: _15  and  _20
REMARK                            x       y       z     vdW  Elec       q    Type
REMARK                         _______ _______ _______ _____ _____    ______ ____
ROOT
ATOM      1  O   UNL     1     -16.179   4.303 -14.579  0.00  0.00    -0.619 OA
ATOM      2  N   UNL     1     -15.325   4.334 -15.531  0.00  0.00    -0.157 N 
ATOM      3  C   UNL     1     -14.940   5.576 -16.077  0.00  0.00    +0.292 A 
ATOM      4  C   UNL     1     -13.995   5.617 -17.119  0.00  0.00    +0.292 A 
ATOM      5  C   UNL     1     -13.654   6.869 -17.680  0.00  0.00    +0.086 A 
ATOM      6  C   UNL     1     -14.231   8.053 -17.221  0.00  0.00    +0.007 A 
ATOM      7  C   UNL     1     -15.156   8.012 -16.185  0.00  0.00    +0.007 A 
ATOM      8  N   UNL     1     -13.416   4.420 -17.589  0.00  0.00    -0.157 N 
ATOM      9  O   UNL     1     -12.570   4.469 -18.550  0.00  0.00    -0.619 OA
ATOM     10  C   UNL     1     -13.782   3.183 -17.037  0.00  0.00    +0.268 A 
ATOM     11  C   UNL     1     -15.505   6.787 -15.616  0.00  0.00    +0.086 A 
ATOM     12  C   UNL     1     -14.787   3.145 -16.040  0.00  0.00    +0.261 A 
ATOM     13  C   UNL     1     -15.337   1.877 -15.455  0.00  0.00    +0.130 C 
ENDROOT
BRANCH  10  14
ATOM     14  C   UNL     1     -13.128   1.989 -17.700  0.00  0.00    +0.150 C 
BRANCH  14  15
ATOM     15  C   UNL     1     -12.028   1.247 -16.977  0.00  0.00    -0.037 A 
ATOM     16  C   UNL     1     -11.189   1.939 -16.087  0.00  0.00    +0.004 A 
ATOM     17  C   UNL     1     -10.182   1.270 -15.391  0.00  0.00    +0.000 A 
ATOM     18  C   UNL     1     -10.007  -0.100 -15.566  0.00  0.00    +0.000 A 
ATOM     19  C   UNL     1     -10.847  -0.804 -16.429  0.00  0.00    +0.000 A 
ATOM     20  C   UNL     1     -11.859  -0.137 -17.125  0.00  0.00    +0.004 A 
ENDBRANCH  14  15
ENDBRANCH  10  14
TORSDOF 2
ENDMDL
MODEL 5
REMARK VINA RESULT:      -7.4      1.719      1.988
REMARK  Name = min_compound955.pdb
REMARK  3 active torsions:
REMARK  status: ('A' for Active; 'I' for Inactive)
REMARK    1  A    between atoms: _11  and  _19
REMARK    2  A    between atoms: _12  and  _20
REMARK    3  A    between atoms: _15  and  _20
REMARK                            x       y       z     vdW  Elec       q    Type
REMARK                         _______ _______ _______ _____ _____    ______ ____
ROOT
ATOM      1  O   UNL     1     -12.668   1.289 -19.670  0.00  0.00    -0.619 OA
ATOM      2  N   UNL     1     -12.452   1.656 -18.464  0.00  0.00    -0.157 N 
ATOM      3  C   UNL     1     -11.472   0.990 -17.701  0.00  0.00    +0.292 A 
ATOM      4  C   UNL     1     -11.225   1.394 -16.377  0.00  0.00    +0.292 A 
ATOM      5  C   UNL     1     -10.266   0.686 -15.616  0.00  0.00    +0.086 A 
ATOM      6  C   UNL     1      -9.565  -0.394 -16.152  0.00  0.00    +0.007 A 
ATOM      7  C   UNL     1      -9.802  -0.786 -17.465  0.00  0.00    +0.007 A 
ATOM      8  N   UNL     1     -11.937   2.482 -15.830  0.00  0.00    -0.157 N 
ATOM      9  O   UNL     1     -11.716   2.829 -14.617  0.00  0.00    -0.619 OA
ATOM     10  C   UNL     1     -12.902   3.159 -16.590  0.00  0.00    +0.268 A 
ATOM     11  C   UNL     1     -10.743  -0.100 -18.233  0.00  0.00    +0.086 A 
ATOM     12  C   UNL     1     -13.195   2.699 -17.897  0.00  0.00    +0.261 A 
ATOM     13  C   UNL     1     -14.279   3.273 -18.762  0.00  0.00    +0.130 C 
ENDROOT
BRANCH  10  14
ATOM     14  C   UNL     1     -13.630   4.253 -15.837  0.00  0.00    +0.150 C 
BRANCH  14  15
ATOM     15  C   UNL     1     -14.754   3.886 -14.895  0.00  0.00    -0.037 A 
ATOM     16  C   UNL     1     -15.631   2.840 -15.230  0.00  0.00    +0.004 A 
ATOM     17  C   UNL     1     -16.661   2.469 -14.366  0.00  0.00    +0.000 A 
ATOM     18  C   UNL     1     -16.821   3.130 -13.151  0.00  0.00    +0.000 A 
ATOM     19  C   UNL     1     -15.944   4.154 -12.795  0.00  0.00    +0.000 A 
ATOM     20  C   UNL     1     -14.909   4.526 -13.657  0.00  0.00    +0.004 A 
ENDBRANCH  14  15
ENDBRANCH  10  14
TORSDOF 2
ENDMDL
MODEL 6
REMARK VINA RESULT:      -7.3      1.903      5.882
REMARK  Name = min_compound955.pdb
REMARK  3 active torsions:
REMARK  status: ('A' for Active; 'I' for Inactive)
REMARK    1  A    between atoms: _11  and  _19
REMARK    2  A    between atoms: _12  and  _20
REMARK    3  A    between atoms: _15  and  _20
REMARK                            x       y       z     vdW  Elec       q    Type
REMARK                         _______ _______ _______ _____ _____    ______ ____
ROOT
ATOM      1  O   UNL     1     -14.908   6.606 -15.542  0.00  0.00    -0.619 OA
ATOM      2  N   UNL     1     -14.964   5.328 -15.557  0.00  0.00    -0.157 N 
ATOM      3  C   UNL     1     -15.827   4.662 -14.664  0.00  0.00    +0.292 A 
ATOM      4  C   UNL     1     -15.898   3.257 -14.681  0.00  0.00    +0.292 A 
ATOM      5  C   UNL     1     -16.740   2.606 -13.749  0.00  0.00    +0.086 A 
ATOM      6  C   UNL     1     -17.496   3.327 -12.825  0.00  0.00    +0.007 A 
ATOM      7  C   UNL     1     -17.434   4.715 -12.817  0.00  0.00    +0.007 A 
ATOM      8  N   UNL     1     -15.129   2.525 -15.610  0.00  0.00    -0.157 N 
ATOM      9  O   UNL     1     -15.190   1.246 -15.603  0.00  0.00    -0.619 OA
ATOM     10  C   UNL     1     -14.281   3.185 -16.512  0.00  0.00    +0.268 A 
ATOM     11  C   UNL     1     -16.610   5.377 -13.728  0.00  0.00    +0.086 A 
ATOM     12  C   UNL     1     -14.161   4.594 -16.439  0.00  0.00    +0.261 A 
ATOM     13  C   UNL     1     -13.208   5.397 -17.276  0.00  0.00    +0.130 C 
ENDROOT
BRANCH  10  14
ATOM     14  C   UNL     1     -13.469   2.258 -17.392  0.00  0.00    +0.150 C 
BRANCH  14  15
ATOM     15  C   UNL     1     -12.285   1.523 -16.805  0.00  0.00    -0.037 A 
ATOM     16  C   UNL     1     -11.399   2.201 -15.950  0.00  0.00    +0.004 A 
ATOM     17  C   UNL     1     -10.313   1.538 -15.380  0.00  0.00    +0.000 A 
ATOM     18  C   UNL     1     -10.104   0.187 -15.645  0.00  0.00    +0.000 A 
ATOM     19  C   UNL     1     -10.989  -0.504 -16.473  0.00  0.00    +0.000 A 
ATOM     20  C   UNL     1     -12.080   0.157 -17.044  0.00  0.00    +0.004 A 
ENDBRANCH  14  15
ENDBRANCH  10  14
TORSDOF 2
ENDMDL
MODEL 7
REMARK VINA RESULT:      -7.2      7.623     10.193
REMARK  Name = min_compound955.pdb
REMARK  3 active torsions:
REMARK  status: ('A' for Active; 'I' for Inactive)
REMARK    1  A    between atoms: _11  and  _19
REMARK    2  A    between atoms: _12  and  _20
REMARK    3  A    between atoms: _15  and  _20
REMARK                            x       y       z     vdW  Elec       q    Type
REMARK                         _______ _______ _______ _____ _____    ______ ____
ROOT
ATOM      1  O   UNL     1     -14.821  -1.543  -6.634  0.00  0.00    -0.619 OA
ATOM      2  N   UNL     1     -15.328  -0.377  -6.494  0.00  0.00    -0.157 N 
ATOM      3  C   UNL     1     -14.869   0.457  -5.454  0.00  0.00    +0.292 A 
ATOM      4  C   UNL     1     -15.417   1.744  -5.300  0.00  0.00    +0.292 A 
ATOM      5  C   UNL     1     -14.972   2.550  -4.226  0.00  0.00    +0.086 A 
ATOM      6  C   UNL     1     -14.007   2.095  -3.327  0.00  0.00    +0.007 A 
ATOM      7  C   UNL     1     -13.459   0.828  -3.487  0.00  0.00    +0.007 A 
ATOM      8  N   UNL     1     -16.398   2.203  -6.204  0.00  0.00    -0.157 N 
ATOM      9  O   UNL     1     -16.901   3.370  -6.042  0.00  0.00    -0.619 OA
ATOM     10  C   UNL     1     -16.845   1.384  -7.251  0.00  0.00    +0.268 A 
ATOM     11  C   UNL     1     -13.883   0.018  -4.541  0.00  0.00    +0.086 A 
ATOM     12  C   UNL     1     -16.341   0.064  -7.354  0.00  0.00    +0.261 A 
ATOM     13  C   UNL     1     -16.823  -0.938  -8.363  0.00  0.00    +0.130 C 
ENDROOT
BRANCH  10  14
ATOM     14  C   UNL     1     -17.951   1.992  -8.086  0.00  0.00    +0.150 C 
BRANCH  14  15
ATOM     15  C   UNL     1     -17.599   2.778  -9.329  0.00  0.00    -0.037 A 
ATOM     16  C   UNL     1     -18.616   3.177 -10.213  0.00  0.00    +0.004 A 
ATOM     17  C   UNL     1     -18.318   3.922 -11.353  0.00  0.00    +0.000 A 
ATOM     18  C   UNL     1     -17.001   4.289 -11.619  0.00  0.00    +0.000 A 
ATOM     19  C   UNL     1     -15.984   3.920 -10.739  0.00  0.00    +0.000 A 
ATOM     20  C   UNL     1     -16.281   3.176  -9.594  0.00  0.00    +0.004 A 
ENDBRANCH  14  15
ENDBRANCH  10  14
TORSDOF 2
ENDMDL
MODEL 8
REMARK VINA RESULT:      -7.2     12.779     15.081
REMARK  Name = min_compound955.pdb
REMARK  3 active torsions:
REMARK  status: ('A' for Active; 'I' for Inactive)
REMARK    1  A    between atoms: _11  and  _19
REMARK    2  A    between atoms: _12  and  _20
REMARK    3  A    between atoms: _15  and  _20
REMARK                            x       y       z     vdW  Elec       q    Type
REMARK                         _______ _______ _______ _____ _____    ______ ____
ROOT
ATOM      1  O   UNL     1     -17.935  -5.202  -2.648  0.00  0.00    -0.619 OA
ATOM      2  N   UNL     1     -16.741  -4.822  -2.392  0.00  0.00    -0.157 N 
ATOM      3  C   UNL     1     -15.742  -5.788  -2.153  0.00  0.00    +0.292 A 
ATOM      4  C   UNL     1     -14.425  -5.376  -1.879  0.00  0.00    +0.292 A 
ATOM      5  C   UNL     1     -13.448  -6.360  -1.601  0.00  0.00    +0.086 A 
ATOM      6  C   UNL     1     -13.764  -7.718  -1.597  0.00  0.00    +0.007 A 
ATOM      7  C   UNL     1     -15.063  -8.124  -1.879  0.00  0.00    +0.007 A 
ATOM      8  N   UNL     1     -14.105  -4.003  -1.874  0.00  0.00    -0.157 N 
ATOM      9  O   UNL     1     -12.906  -3.640  -1.606  0.00  0.00    -0.619 OA
ATOM     10  C   UNL     1     -15.091  -3.038  -2.129  0.00  0.00    +0.268 A 
ATOM     11  C   UNL     1     -16.041  -7.170  -2.157  0.00  0.00    +0.086 A 
ATOM     12  C   UNL     1     -16.429  -3.458  -2.332  0.00  0.00    +0.261 A 
ATOM     13  C   UNL     1     -17.584  -2.516  -2.505  0.00  0.00    +0.130 C 
ENDROOT
BRANCH  10  14
ATOM     14  C   UNL     1     -14.606  -1.608  -2.016  0.00  0.00    +0.150 C 
BRANCH  14  15
ATOM     15  C   UNL     1     -14.366  -0.802  -3.272  0.00  0.00    -0.037 A 
ATOM     16  C   UNL     1     -14.559  -1.397  -4.530  0.00  0.00    +0.004 A 
ATOM     17  C   UNL     1     -14.366  -0.667  -5.702  0.00  0.00    +0.000 A 
ATOM     18  C   UNL     1     -13.990   0.672  -5.633  0.00  0.00    +0.000 A 
ATOM     19  C   UNL     1     -13.817   1.283  -4.391  0.00  0.00    +0.000 A 
ATOM     20  C   UNL     1     -14.013   0.554  -3.214  0.00  0.00    +0.004 A 
ENDBRANCH  14  15
ENDBRANCH  10  14
TORSDOF 2
ENDMDL
MODEL 9
REMARK VINA RESULT:      -7.2      2.870      5.882
REMARK  Name = min_compound955.pdb
REMARK  3 active torsions:
REMARK  status: ('A' for Active; 'I' for Inactive)
REMARK    1  A    between atoms: _11  and  _19
REMARK    2  A    between atoms: _12  and  _20
REMARK    3  A    between atoms: _15  and  _20
REMARK                            x       y       z     vdW  Elec       q    Type
REMARK                         _______ _______ _______ _____ _____    ______ ____
ROOT
ATOM      1  O   UNL     1     -11.650   6.625 -18.079  0.00  0.00    -0.619 OA
ATOM      2  N   UNL     1     -12.308   5.631 -17.614  0.00  0.00    -0.157 N 
ATOM      3  C   UNL     1     -13.686   5.523 -17.888  0.00  0.00    +0.292 A 
ATOM      4  C   UNL     1     -14.413   4.427 -17.386  0.00  0.00    +0.292 A 
ATOM      5  C   UNL     1     -15.803   4.359 -17.637  0.00  0.00    +0.086 A 
ATOM      6  C   UNL     1     -16.459   5.349 -18.369  0.00  0.00    +0.007 A 
ATOM      7  C   UNL     1     -15.738   6.425 -18.873  0.00  0.00    +0.007 A 
ATOM      8  N   UNL     1     -13.753   3.429 -16.640  0.00  0.00    -0.157 N 
ATOM      9  O   UNL     1     -14.429   2.445 -16.174  0.00  0.00    -0.619 OA
ATOM     10  C   UNL     1     -12.378   3.523 -16.380  0.00  0.00    +0.268 A 
ATOM     11  C   UNL     1     -14.366   6.510 -18.638  0.00  0.00    +0.086 A 
ATOM     12  C   UNL     1     -11.669   4.665 -16.826  0.00  0.00    +0.261 A 
ATOM     13  C   UNL     1     -10.224   4.927 -16.515  0.00  0.00    +0.130 C 
ENDROOT
BRANCH  10  14
ATOM     14  C   UNL     1     -11.834   2.413 -15.504  0.00  0.00    +0.150 C 
BRANCH  14  15
ATOM     15  C   UNL     1     -11.125   1.240 -16.143  0.00  0.00    -0.037 A 
ATOM     16  C   UNL     1     -10.221   0.476 -15.387  0.00  0.00    +0.004 A 
ATOM     17  C   UNL     1      -9.573  -0.624 -15.948  0.00  0.00    +0.000 A 
ATOM     18  C   UNL     1      -9.829  -0.982 -17.268  0.00  0.00    +0.000 A 
ATOM     19  C   UNL     1     -10.741  -0.247 -18.025  0.00  0.00    +0.000 A 
ATOM     20  C   UNL     1     -11.395   0.854 -17.464  0.00  0.00    +0.004 A 
ENDBRANCH  14  15
ENDBRANCH  10  14
TORSDOF 2
ENDMDL
