MODEL 1
REMARK VINA RESULT:      -6.7      0.000      0.000
REMARK  Name = min_compound924.pdb
REMARK  6 active torsions:
REMARK  status: ('A' for Active; 'I' for Inactive)
REMARK    1  A    between atoms: _6  and  _7
REMARK    2  A    between atoms: _13  and  _18
REMARK    3  A    between atoms: _14  and  _15
REMARK    4  A    between atoms: _15  and  _16
REMARK    5  A    between atoms: _15  and  _17
REMARK    6  A    between atoms: _18  and  _19
REMARK                            x       y       z     vdW  Elec       q    Type
REMARK                         _______ _______ _______ _____ _____    ______ ____
ROOT
ATOM      1  C   UNL     1     -11.944   2.101 -18.041  0.00  0.00    +0.292 C 
ATOM      2  N   UNL     1     -11.943   3.376 -17.631  0.00  0.00    -0.042 NA
ATOM      3  C   UNL     1     -12.787   4.196 -18.233  0.00  0.00    +0.380 C 
ATOM      4  N   UNL     1     -12.739   5.551 -17.601  0.00  0.00    -0.236 N 
ATOM      5  H   UNL     1     -11.749   5.662 -17.394  0.00  0.00    +0.245 HD
ATOM      6  N   UNL     1     -13.587   3.743 -19.277  0.00  0.00    -0.167 N 
ATOM      7  H   UNL     1     -14.223   4.351 -19.721  0.00  0.00    +0.255 HD
ATOM      8  C   UNL     1     -13.474   2.418 -19.683  0.00  0.00    +0.305 C 
ATOM      9  N   UNL     1     -14.223   1.696 -20.753  0.00  0.00    -0.294 N 
ATOM     10  H   UNL     1     -13.521   1.080 -21.155  0.00  0.00    +0.151 HD
ATOM     11  N   UNL     1     -12.630   1.601 -19.077  0.00  0.00    -0.324 NA
ENDROOT
BRANCH   1  15
ATOM     12  N   UNL     1      -9.625  -0.671 -15.690  0.00  0.00    -0.263 NA
ATOM     13  C   UNL     1      -9.999  -0.952 -16.953  0.00  0.00    +0.111 A 
ATOM     14  C   UNL     1     -10.761  -0.102 -17.740  0.00  0.00    +0.034 A 
ATOM     15  C   UNL     1     -11.178   1.135 -17.221  0.00  0.00    +0.052 A 
ATOM     16  C   UNL     1     -10.789   1.432 -15.906  0.00  0.00    +0.034 A 
ATOM     17  C   UNL     1     -10.025   0.518 -15.195  0.00  0.00    +0.111 A 
ENDBRANCH   1  15
BRANCH   4  18
ATOM     18  C   UNL     1     -13.390   6.548 -18.514  0.00  0.00    +0.130 C 
ATOM     19  C   UNL     1     -12.013   7.252 -18.954  0.00  0.00    +0.045 C 
ATOM     20  C   UNL     1     -14.035   7.427 -17.326  0.00  0.00    +0.045 C 
ENDBRANCH   4  18
BRANCH   9  21
ATOM     21  C   UNL     1     -14.874   2.692 -21.665  0.00  0.00    +0.103 C 
ATOM     22  C   UNL     1     -13.901   2.391 -22.901  0.00  0.00    +0.024 C 
ENDBRANCH   9  21
TORSDOF 3
ENDMDL
MODEL 2
REMARK VINA RESULT:      -6.4      2.385      3.617
REMARK  Name = min_compound924.pdb
REMARK  6 active torsions:
REMARK  status: ('A' for Active; 'I' for Inactive)
REMARK    1  A    between atoms: _6  and  _7
REMARK    2  A    between atoms: _13  and  _18
REMARK    3  A    between atoms: _14  and  _15
REMARK    4  A    between atoms: _15  and  _16
REMARK    5  A    between atoms: _15  and  _17
REMARK    6  A    between atoms: _18  and  _19
REMARK                            x       y       z     vdW  Elec       q    Type
REMARK                         _______ _______ _______ _____ _____    ______ ____
ROOT
ATOM      1  C   UNL     1     -12.134   2.643 -16.821  0.00  0.00    +0.292 C 
ATOM      2  N   UNL     1     -12.904   2.812 -15.738  0.00  0.00    -0.042 NA
ATOM      3  C   UNL     1     -13.755   3.824 -15.765  0.00  0.00    +0.380 C 
ATOM      4  N   UNL     1     -14.609   3.820 -14.537  0.00  0.00    -0.236 N 
ATOM      5  H   UNL     1     -13.954   3.531 -13.814  0.00  0.00    +0.245 HD
ATOM      6  N   UNL     1     -13.789   4.689 -16.854  0.00  0.00    -0.167 N 
ATOM      7  H   UNL     1     -14.428   5.438 -16.879  0.00  0.00    +0.255 HD
ATOM      8  C   UNL     1     -12.904   4.478 -17.906  0.00  0.00    +0.305 C 
ATOM      9  N   UNL     1     -12.756   5.246 -19.177  0.00  0.00    -0.294 N 
ATOM     10  H   UNL     1     -11.752   5.240 -19.338  0.00  0.00    +0.151 HD
ATOM     11  N   UNL     1     -12.056   3.465 -17.876  0.00  0.00    -0.324 NA
ENDROOT
BRANCH   1  15
ATOM     12  N   UNL     1      -9.822  -0.993 -16.944  0.00  0.00    -0.263 NA
ATOM     13  C   UNL     1      -9.323   0.179 -17.381  0.00  0.00    +0.111 A 
ATOM     14  C   UNL     1     -10.034   1.369 -17.379  0.00  0.00    +0.034 A 
ATOM     15  C   UNL     1     -11.353   1.388 -16.896  0.00  0.00    +0.052 A 
ATOM     16  C   UNL     1     -11.875   0.168 -16.438  0.00  0.00    +0.034 A 
ATOM     17  C   UNL     1     -11.086  -0.972 -16.478  0.00  0.00    +0.111 A 
ENDBRANCH   1  15
BRANCH   4  18
ATOM     18  C   UNL     1     -15.280   5.154 -14.395  0.00  0.00    +0.130 C 
ATOM     19  C   UNL     1     -15.133   5.212 -12.795  0.00  0.00    +0.045 C 
ATOM     20  C   UNL     1     -16.758   4.606 -14.733  0.00  0.00    +0.045 C 
ENDBRANCH   4  18
BRANCH   9  21
ATOM     21  C   UNL     1     -13.427   6.580 -19.036  0.00  0.00    +0.103 C 
ATOM     22  C   UNL     1     -12.102   7.341 -18.557  0.00  0.00    +0.024 C 
ENDBRANCH   9  21
TORSDOF 3
ENDMDL
MODEL 3
REMARK VINA RESULT:      -6.3      3.270      5.521
REMARK  Name = min_compound924.pdb
REMARK  6 active torsions:
REMARK  status: ('A' for Active; 'I' for Inactive)
REMARK    1  A    between atoms: _6  and  _7
REMARK    2  A    between atoms: _13  and  _18
REMARK    3  A    between atoms: _14  and  _15
REMARK    4  A    between atoms: _15  and  _16
REMARK    5  A    between atoms: _15  and  _17
REMARK    6  A    between atoms: _18  and  _19
REMARK                            x       y       z     vdW  Elec       q    Type
REMARK                         _______ _______ _______ _____ _____    ______ ____
ROOT
ATOM      1  C   UNL     1     -14.019   2.775 -16.256  0.00  0.00    +0.292 C 
ATOM      2  N   UNL     1     -14.485   2.941 -17.501  0.00  0.00    -0.042 NA
ATOM      3  C   UNL     1     -13.751   2.444 -18.482  0.00  0.00    +0.380 C 
ATOM      4  N   UNL     1     -14.447   2.619 -19.794  0.00  0.00    -0.236 N 
ATOM      5  H   UNL     1     -14.877   3.535 -19.695  0.00  0.00    +0.245 HD
ATOM      6  N   UNL     1     -12.532   1.831 -18.211  0.00  0.00    -0.167 N 
ATOM      7  H   UNL     1     -11.989   1.452 -18.940  0.00  0.00    +0.255 HD
ATOM      8  C   UNL     1     -12.094   1.763 -16.893  0.00  0.00    +0.305 C 
ATOM      9  N   UNL     1     -10.847   1.150 -16.348  0.00  0.00    -0.294 N 
ATOM     10  H   UNL     1     -10.581   1.785 -15.600  0.00  0.00    +0.151 HD
ATOM     11  N   UNL     1     -12.831   2.260 -15.915  0.00  0.00    -0.324 NA
ENDROOT
BRANCH   1  15
ATOM     12  N   UNL     1     -16.644   3.710 -12.966  0.00  0.00    -0.263 NA
ATOM     13  C   UNL     1     -16.891   2.682 -13.800  0.00  0.00    +0.111 A 
ATOM     14  C   UNL     1     -16.087   2.354 -14.882  0.00  0.00    +0.034 A 
ATOM     15  C   UNL     1     -14.939   3.118 -15.148  0.00  0.00    +0.052 A 
ATOM     16  C   UNL     1     -14.678   4.190 -14.280  0.00  0.00    +0.034 A 
ATOM     17  C   UNL     1     -15.540   4.440 -13.223  0.00  0.00    +0.111 A 
ENDBRANCH   1  15
BRANCH   4  18
ATOM     18  C   UNL     1     -13.464   2.412 -20.909  0.00  0.00    +0.130 C 
ATOM     19  C   UNL     1     -13.566   3.919 -21.462  0.00  0.00    +0.045 C 
ATOM     20  C   UNL     1     -14.448   1.495 -21.797  0.00  0.00    +0.045 C 
ENDBRANCH   4  18
BRANCH   9  21
ATOM     21  C   UNL     1      -9.864   0.943 -17.462  0.00  0.00    +0.103 C 
ATOM     22  C   UNL     1      -9.879  -0.654 -17.352  0.00  0.00    +0.024 C 
ENDBRANCH   9  21
TORSDOF 3
ENDMDL
MODEL 4
REMARK VINA RESULT:      -6.2      2.818      3.617
REMARK  Name = min_compound924.pdb
REMARK  6 active torsions:
REMARK  status: ('A' for Active; 'I' for Inactive)
REMARK    1  A    between atoms: _6  and  _7
REMARK    2  A    between atoms: _13  and  _18
REMARK    3  A    between atoms: _14  and  _15
REMARK    4  A    between atoms: _15  and  _16
REMARK    5  A    between atoms: _15  and  _17
REMARK    6  A    between atoms: _18  and  _19
REMARK                            x       y       z     vdW  Elec       q    Type
REMARK                         _______ _______ _______ _____ _____    ______ ____
ROOT
ATOM      1  C   UNL     1     -13.003   2.078 -16.967  0.00  0.00    +0.292 C 
ATOM      2  N   UNL     1     -12.864   3.266 -17.570  0.00  0.00    -0.042 NA
ATOM      3  C   UNL     1     -13.817   4.157 -17.356  0.00  0.00    +0.380 C 
ATOM      4  N   UNL     1     -13.473   5.457 -18.009  0.00  0.00    -0.236 N 
ATOM      5  H   UNL     1     -13.036   5.158 -18.878  0.00  0.00    +0.245 HD
ATOM      6  N   UNL     1     -14.927   3.832 -16.582  0.00  0.00    -0.167 N 
ATOM      7  H   UNL     1     -15.633   4.497 -16.414  0.00  0.00    +0.255 HD
ATOM      8  C   UNL     1     -15.021   2.550 -16.050  0.00  0.00    +0.305 C 
ATOM      9  N   UNL     1     -16.089   1.968 -15.185  0.00  0.00    -0.294 N 
ATOM     10  H   UNL     1     -16.162   1.010 -15.516  0.00  0.00    +0.151 HD
ATOM     11  N   UNL     1     -14.066   1.663 -16.265  0.00  0.00    -0.324 NA
ENDROOT
BRANCH   1  15
ATOM     12  N   UNL     1      -9.583  -0.547 -17.000  0.00  0.00    -0.263 NA
ATOM     13  C   UNL     1      -9.499   0.733 -17.414  0.00  0.00    +0.111 A 
ATOM     14  C   UNL     1     -10.574   1.608 -17.439  0.00  0.00    +0.034 A 
ATOM     15  C   UNL     1     -11.837   1.167 -17.012  0.00  0.00    +0.052 A 
ATOM     16  C   UNL     1     -11.928  -0.166 -16.579  0.00  0.00    +0.034 A 
ATOM     17  C   UNL     1     -10.796  -0.967 -16.589  0.00  0.00    +0.111 A 
ENDBRANCH   1  15
BRANCH   4  18
ATOM     18  C   UNL     1     -14.702   6.314 -18.090  0.00  0.00    +0.130 C 
ATOM     19  C   UNL     1     -14.744   6.342 -19.697  0.00  0.00    +0.045 C 
ATOM     20  C   UNL     1     -13.968   7.661 -17.594  0.00  0.00    +0.045 C 
ENDBRANCH   4  18
BRANCH   9  21
ATOM     21  C   UNL     1     -17.318   2.824 -15.265  0.00  0.00    +0.103 C 
ATOM     22  C   UNL     1     -17.472   2.978 -13.678  0.00  0.00    +0.024 C 
ENDBRANCH   9  21
TORSDOF 3
ENDMDL
MODEL 5
REMARK VINA RESULT:      -6.0      1.089      3.934
REMARK  Name = min_compound924.pdb
REMARK  6 active torsions:
REMARK  status: ('A' for Active; 'I' for Inactive)
REMARK    1  A    between atoms: _6  and  _7
REMARK    2  A    between atoms: _13  and  _18
REMARK    3  A    between atoms: _14  and  _15
REMARK    4  A    between atoms: _15  and  _16
REMARK    5  A    between atoms: _15  and  _17
REMARK    6  A    between atoms: _18  and  _19
REMARK                            x       y       z     vdW  Elec       q    Type
REMARK                         _______ _______ _______ _____ _____    ______ ____
ROOT
ATOM      1  C   UNL     1     -12.448   1.947 -18.131  0.00  0.00    +0.292 C 
ATOM      2  N   UNL     1     -12.864   1.689 -19.377  0.00  0.00    -0.042 NA
ATOM      3  C   UNL     1     -13.508   2.660 -20.003  0.00  0.00    +0.380 C 
ATOM      4  N   UNL     1     -13.818   2.259 -21.410  0.00  0.00    -0.236 N 
ATOM      5  H   UNL     1     -14.049   1.274 -21.312  0.00  0.00    +0.245 HD
ATOM      6  N   UNL     1     -13.775   3.862 -19.354  0.00  0.00    -0.167 N 
ATOM      7  H   UNL     1     -14.246   4.589 -19.822  0.00  0.00    +0.255 HD
ATOM      8  C   UNL     1     -13.365   4.018 -18.035  0.00  0.00    +0.305 C 
ATOM      9  N   UNL     1     -13.515   5.201 -17.138  0.00  0.00    -0.294 N 
ATOM     10  H   UNL     1     -13.699   4.784 -16.229  0.00  0.00    +0.151 HD
ATOM     11  N   UNL     1     -12.720   3.046 -17.413  0.00  0.00    -0.324 NA
ENDROOT
BRANCH   1  15
ATOM     12  N   UNL     1      -9.777  -0.868 -16.251  0.00  0.00    -0.263 NA
ATOM     13  C   UNL     1      -9.318   0.171 -16.975  0.00  0.00    +0.111 A 
ATOM     14  C   UNL     1     -10.137   1.090 -17.613  0.00  0.00    +0.034 A 
ATOM     15  C   UNL     1     -11.532   0.960 -17.515  0.00  0.00    +0.052 A 
ATOM     16  C   UNL     1     -12.014  -0.120 -16.760  0.00  0.00    +0.034 A 
ATOM     17  C   UNL     1     -11.116  -0.988 -16.156  0.00  0.00    +0.111 A 
ENDBRANCH   1  15
BRANCH   4  18
ATOM     18  C   UNL     1     -14.858   3.182 -21.971  0.00  0.00    +0.130 C 
ATOM     19  C   UNL     1     -15.743   2.009 -22.625  0.00  0.00    +0.045 C 
ATOM     20  C   UNL     1     -13.907   3.782 -23.127  0.00  0.00    +0.045 C 
ENDBRANCH   4  18
BRANCH   9  21
ATOM     21  C   UNL     1     -14.556   6.124 -17.699  0.00  0.00    +0.103 C 
ATOM     22  C   UNL     1     -13.558   7.368 -17.847  0.00  0.00    +0.024 C 
ENDBRANCH   9  21
TORSDOF 3
ENDMDL
MODEL 6
REMARK VINA RESULT:      -6.0      3.507      5.292
REMARK  Name = min_compound924.pdb
REMARK  6 active torsions:
REMARK  status: ('A' for Active; 'I' for Inactive)
REMARK    1  A    between atoms: _6  and  _7
REMARK    2  A    between atoms: _13  and  _18
REMARK    3  A    between atoms: _14  and  _15
REMARK    4  A    between atoms: _15  and  _16
REMARK    5  A    between atoms: _15  and  _17
REMARK    6  A    between atoms: _18  and  _19
REMARK                            x       y       z     vdW  Elec       q    Type
REMARK                         _______ _______ _______ _____ _____    ______ ____
ROOT
ATOM      1  C   UNL     1     -13.858   3.611 -15.568  0.00  0.00    +0.292 C 
ATOM      2  N   UNL     1     -13.966   4.571 -16.495  0.00  0.00    -0.042 NA
ATOM      3  C   UNL     1     -13.125   4.511 -17.514  0.00  0.00    +0.380 C 
ATOM      4  N   UNL     1     -13.434   5.585 -18.509  0.00  0.00    -0.236 N 
ATOM      5  H   UNL     1     -13.691   6.369 -17.914  0.00  0.00    +0.245 HD
ATOM      6  N   UNL     1     -12.149   3.521 -17.567  0.00  0.00    -0.167 N 
ATOM      7  H   UNL     1     -11.529   3.470 -18.330  0.00  0.00    +0.255 HD
ATOM      8  C   UNL     1     -12.066   2.605 -16.524  0.00  0.00    +0.305 C 
ATOM      9  N   UNL     1     -11.131   1.454 -16.357  0.00  0.00    -0.294 N 
ATOM     10  H   UNL     1     -10.939   1.452 -15.359  0.00  0.00    +0.151 HD
ATOM     11  N   UNL     1     -12.909   2.666 -15.508  0.00  0.00    -0.324 NA
ENDROOT
BRANCH   1  15
ATOM     12  N   UNL     1     -17.048   3.469 -12.671  0.00  0.00    -0.263 NA
ATOM     13  C   UNL     1     -15.986   4.284 -12.518  0.00  0.00    +0.111 A 
ATOM     14  C   UNL     1     -14.928   4.351 -13.411  0.00  0.00    +0.034 A 
ATOM     15  C   UNL     1     -14.936   3.536 -14.556  0.00  0.00    +0.052 A 
ATOM     16  C   UNL     1     -16.041   2.687 -14.719  0.00  0.00    +0.034 A 
ATOM     17  C   UNL     1     -17.053   2.690 -13.771  0.00  0.00    +0.111 A 
ENDBRANCH   1  15
BRANCH   4  18
ATOM     18  C   UNL     1     -12.268   5.750 -19.439  0.00  0.00    +0.130 C 
ATOM     19  C   UNL     1     -11.836   7.187 -18.861  0.00  0.00    +0.045 C 
ATOM     20  C   UNL     1     -13.169   5.999 -20.753  0.00  0.00    +0.045 C 
ENDBRANCH   4  18
BRANCH   9  21
ATOM     21  C   UNL     1      -9.966   1.619 -17.287  0.00  0.00    +0.103 C 
ATOM     22  C   UNL     1      -9.577   0.065 -17.284  0.00  0.00    +0.024 C 
ENDBRANCH   9  21
TORSDOF 3
ENDMDL
MODEL 7
REMARK VINA RESULT:      -6.0      1.636      2.089
REMARK  Name = min_compound924.pdb
REMARK  6 active torsions:
REMARK  status: ('A' for Active; 'I' for Inactive)
REMARK    1  A    between atoms: _6  and  _7
REMARK    2  A    between atoms: _13  and  _18
REMARK    3  A    between atoms: _14  and  _15
REMARK    4  A    between atoms: _15  and  _16
REMARK    5  A    between atoms: _15  and  _17
REMARK    6  A    between atoms: _18  and  _19
REMARK                            x       y       z     vdW  Elec       q    Type
REMARK                         _______ _______ _______ _____ _____    ______ ____
ROOT
ATOM      1  C   UNL     1     -12.644   1.975 -18.198  0.00  0.00    +0.292 C 
ATOM      2  N   UNL     1     -13.424   2.891 -17.611  0.00  0.00    -0.042 NA
ATOM      3  C   UNL     1     -14.460   3.325 -18.309  0.00  0.00    +0.380 C 
ATOM      4  N   UNL     1     -15.286   4.263 -17.487  0.00  0.00    -0.236 N 
ATOM      5  H   UNL     1     -14.582   4.779 -16.967  0.00  0.00    +0.245 HD
ATOM      6  N   UNL     1     -14.674   2.877 -19.608  0.00  0.00    -0.167 N 
ATOM      7  H   UNL     1     -15.449   3.192 -20.126  0.00  0.00    +0.255 HD
ATOM      8  C   UNL     1     -13.772   1.975 -20.163  0.00  0.00    +0.305 C 
ATOM      9  N   UNL     1     -13.790   1.339 -21.514  0.00  0.00    -0.294 N 
ATOM     10  H   UNL     1     -12.807   1.305 -21.769  0.00  0.00    +0.151 HD
ATOM     11  N   UNL     1     -12.739   1.541 -19.462  0.00  0.00    -0.324 NA
ENDROOT
BRANCH   1  15
ATOM     12  N   UNL     1      -9.763   0.013 -15.659  0.00  0.00    -0.263 NA
ATOM     13  C   UNL     1     -10.285   1.214 -15.343  0.00  0.00    +0.111 A 
ATOM     14  C   UNL     1     -11.199   1.892 -16.136  0.00  0.00    +0.034 A 
ATOM     15  C   UNL     1     -11.628   1.317 -17.344  0.00  0.00    +0.052 A 
ATOM     16  C   UNL     1     -11.087   0.065 -17.675  0.00  0.00    +0.034 A 
ATOM     17  C   UNL     1     -10.179  -0.537 -16.817  0.00  0.00    +0.111 A 
ENDBRANCH   1  15
BRANCH   4  18
ATOM     18  C   UNL     1     -16.209   5.030 -18.387  0.00  0.00    +0.130 C 
ATOM     19  C   UNL     1     -15.380   6.404 -18.296  0.00  0.00    +0.045 C 
ATOM     20  C   UNL     1     -17.414   5.111 -17.319  0.00  0.00    +0.045 C 
ENDBRANCH   4  18
BRANCH   9  21
ATOM     21  C   UNL     1     -14.713   2.106 -22.413  0.00  0.00    +0.103 C 
ATOM     22  C   UNL     1     -13.539   2.914 -23.144  0.00  0.00    +0.024 C 
ENDBRANCH   9  21
TORSDOF 3
ENDMDL
MODEL 8
REMARK VINA RESULT:      -5.8      9.811     11.882
REMARK  Name = min_compound924.pdb
REMARK  6 active torsions:
REMARK  status: ('A' for Active; 'I' for Inactive)
REMARK    1  A    between atoms: _6  and  _7
REMARK    2  A    between atoms: _13  and  _18
REMARK    3  A    between atoms: _14  and  _15
REMARK    4  A    between atoms: _15  and  _16
REMARK    5  A    between atoms: _15  and  _17
REMARK    6  A    between atoms: _18  and  _19
REMARK                            x       y       z     vdW  Elec       q    Type
REMARK                         _______ _______ _______ _____ _____    ______ ____
ROOT
ATOM      1  C   UNL     1     -16.804   2.830  -9.570  0.00  0.00    +0.292 C 
ATOM      2  N   UNL     1     -15.789   2.458  -8.779  0.00  0.00    -0.042 NA
ATOM      3  C   UNL     1     -16.080   1.634  -7.787  0.00  0.00    +0.380 C 
ATOM      4  N   UNL     1     -14.835   1.234  -7.060  0.00  0.00    -0.236 N 
ATOM      5  H   UNL     1     -14.293   2.095  -7.062  0.00  0.00    +0.245 HD
ATOM      6  N   UNL     1     -17.393   1.231  -7.565  0.00  0.00    -0.167 N 
ATOM      7  H   UNL     1     -17.609   0.610  -6.832  0.00  0.00    +0.255 HD
ATOM      8  C   UNL     1     -18.394   1.722  -8.396  0.00  0.00    +0.305 C 
ATOM      9  N   UNL     1     -19.858   1.432  -8.375  0.00  0.00    -0.294 N 
ATOM     10  H   UNL     1     -20.277   2.325  -8.617  0.00  0.00    +0.151 HD
ATOM     11  N   UNL     1     -18.100   2.544  -9.388  0.00  0.00    -0.324 NA
ENDROOT
BRANCH   1  15
ATOM     12  N   UNL     1     -15.708   4.876 -13.204  0.00  0.00    -0.263 NA
ATOM     13  C   UNL     1     -15.070   5.106 -12.040  0.00  0.00    +0.111 A 
ATOM     14  C   UNL     1     -15.398   4.488 -10.844  0.00  0.00    +0.034 A 
ATOM     15  C   UNL     1     -16.451   3.559 -10.810  0.00  0.00    +0.052 A 
ATOM     16  C   UNL     1     -17.118   3.316 -12.021  0.00  0.00    +0.034 A 
ATOM     17  C   UNL     1     -16.717   3.983 -13.169  0.00  0.00    +0.111 A 
ENDBRANCH   1  15
BRANCH   4  18
ATOM     18  C   UNL     1     -15.206   0.630  -5.737  0.00  0.00    +0.130 C 
ATOM     19  C   UNL     1     -14.054   1.391  -4.912  0.00  0.00    +0.045 C 
ATOM     20  C   UNL     1     -14.661  -0.844  -6.097  0.00  0.00    +0.045 C 
ENDBRANCH   4  18
BRANCH   9  21
ATOM     21  C   UNL     1     -20.228   0.828  -7.053  0.00  0.00    +0.103 C 
ATOM     22  C   UNL     1     -20.985  -0.430  -7.693  0.00  0.00    +0.024 C 
ENDBRANCH   9  21
TORSDOF 3
ENDMDL
MODEL 9
REMARK VINA RESULT:      -5.6     14.511     18.045
REMARK  Name = min_compound924.pdb
REMARK  6 active torsions:
REMARK  status: ('A' for Active; 'I' for Inactive)
REMARK    1  A    between atoms: _6  and  _7
REMARK    2  A    between atoms: _13  and  _18
REMARK    3  A    between atoms: _14  and  _15
REMARK    4  A    between atoms: _15  and  _16
REMARK    5  A    between atoms: _15  and  _17
REMARK    6  A    between atoms: _18  and  _19
REMARK                            x       y       z     vdW  Elec       q    Type
REMARK                         _______ _______ _______ _____ _____    ______ ____
ROOT
ATOM      1  C   UNL     1     -14.830  -1.737  -2.888  0.00  0.00    +0.292 C 
ATOM      2  N   UNL     1     -14.147  -2.888  -2.930  0.00  0.00    -0.042 NA
ATOM      3  C   UNL     1     -14.569  -3.859  -2.139  0.00  0.00    +0.380 C 
ATOM      4  N   UNL     1     -13.773  -5.104  -2.371  0.00  0.00    -0.236 N 
ATOM      5  H   UNL     1     -12.835  -4.740  -2.523  0.00  0.00    +0.245 HD
ATOM      6  N   UNL     1     -15.639  -3.651  -1.274  0.00  0.00    -0.167 N 
ATOM      7  H   UNL     1     -15.960  -4.377  -0.691  0.00  0.00    +0.255 HD
ATOM      8  C   UNL     1     -16.247  -2.401  -1.248  0.00  0.00    +0.305 C 
ATOM      9  N   UNL     1     -17.407  -1.937  -0.432  0.00  0.00    -0.294 N 
ATOM     10  H   UNL     1     -17.164  -0.977  -0.204  0.00  0.00    +0.151 HD
ATOM     11  N   UNL     1     -15.823  -1.433  -2.042  0.00  0.00    -0.324 NA
ENDROOT
BRANCH   1  15
ATOM     12  N   UNL     1     -14.008   1.205  -5.931  0.00  0.00    -0.263 NA
ATOM     13  C   UNL     1     -14.231  -0.088  -6.236  0.00  0.00    +0.111 A 
ATOM     14  C   UNL     1     -14.480  -1.072  -5.292  0.00  0.00    +0.034 A 
ATOM     15  C   UNL     1     -14.513  -0.733  -3.930  0.00  0.00    +0.052 A 
ATOM     16  C   UNL     1     -14.283   0.614  -3.608  0.00  0.00    +0.034 A 
ATOM     17  C   UNL     1     -14.043   1.528  -4.623  0.00  0.00    +0.111 A 
ENDBRANCH   1  15
BRANCH   4  18
ATOM     18  C   UNL     1     -13.991  -6.053  -1.230  0.00  0.00    +0.130 C 
ATOM     19  C   UNL     1     -12.781  -5.478  -0.340  0.00  0.00    +0.045 C 
ATOM     20  C   UNL     1     -13.448  -7.350  -2.019  0.00  0.00    +0.045 C 
ENDBRANCH   4  18
BRANCH   9  21
ATOM     21  C   UNL     1     -17.626  -2.886   0.709  0.00  0.00    +0.103 C 
ATOM     22  C   UNL     1     -16.764  -2.032   1.754  0.00  0.00    +0.024 C 
ENDBRANCH   9  21
TORSDOF 3
ENDMDL
