MODEL 1
REMARK VINA RESULT:      -7.6      0.000      0.000
REMARK  Name = min_compound999.pdb
REMARK  4 active torsions:
REMARK  status: ('A' for Active; 'I' for Inactive)
REMARK    1  A    between atoms: _8  and  _21
REMARK    2  A    between atoms: _11  and  _12
REMARK    3  A    between atoms: _11  and  _18
REMARK    4  A    between atoms: _15  and  _22
REMARK                            x       y       z     vdW  Elec       q    Type
REMARK                         _______ _______ _______ _____ _____    ______ ____
ROOT
ATOM      1  C   UNL     1      -9.826  -1.059 -17.168  0.00  0.00    +0.002 A 
ATOM      2  C   UNL     1     -10.707  -0.343 -17.982  0.00  0.00    +0.030 A 
ATOM      3  C   UNL     1     -11.356   0.796 -17.520  0.00  0.00    +0.091 A 
ATOM      4  N   UNL     1     -12.207   1.458 -18.329  0.00  0.00    -0.227 NA
ATOM      5  C   UNL     1     -12.825   2.548 -17.824  0.00  0.00    +0.160 A 
ATOM      6  N   UNL     1     -13.646   3.111 -18.846  0.00  0.00    -0.198 N 
ATOM      7  H   UNL     1     -14.080   2.323 -19.328  0.00  0.00    +0.175 HD
ATOM      8  C   UNL     1     -12.564   3.004 -16.524  0.00  0.00    +0.080 A 
ATOM      9  C   UNL     1     -13.204   4.189 -15.872  0.00  0.00    +0.069 C 
ATOM     10  N   UNL     1     -11.698   2.335 -15.714  0.00  0.00    -0.247 NA
ATOM     11  C   UNL     1     -11.104   1.234 -16.201  0.00  0.00    +0.090 A 
ATOM     12  C   UNL     1     -10.229   0.515 -15.397  0.00  0.00    +0.030 A 
ATOM     13  C   UNL     1      -9.588  -0.630 -15.870  0.00  0.00    +0.002 A 
ENDROOT
BRANCH   6  14
ATOM     14  S   UNL     1     -14.574   4.259 -18.582  0.00  0.00    +0.074 S 
ATOM     15  O   UNL     1     -15.503   5.408 -18.319  0.00  0.00    -0.150 OA
ATOM     16  O   UNL     1     -15.359   3.659 -19.690  0.00  0.00    -0.150 OA
BRANCH  14  17
ATOM     17  C   UNL     1     -13.364   5.386 -19.457  0.00  0.00    +0.109 A 
ATOM     18  C   UNL     1     -12.690   6.382 -18.746  0.00  0.00    +0.030 A 
ATOM     19  C   UNL     1     -11.775   7.190 -19.426  0.00  0.00    +0.024 A 
ATOM     20  C   UNL     1     -11.526   7.006 -20.794  0.00  0.00    +0.025 A 
ATOM     21  C   UNL     1     -12.274   6.057 -21.498  0.00  0.00    +0.024 A 
ATOM     22  C   UNL     1     -13.167   5.218 -20.831  0.00  0.00    +0.030 A 
BRANCH  20  23
ATOM     23  N   UNL     1     -10.714   7.910 -21.488  0.00  0.00    -0.358 N 
ATOM     24  H   UNL     1     -10.676   7.746 -22.489  0.00  0.00    +0.142 HD
ATOM     25  H   UNL     1     -10.900   8.883 -21.265  0.00  0.00    +0.142 HD
ENDBRANCH  20  23
ENDBRANCH  14  17
ENDBRANCH   6  14
TORSDOF 3
ENDMDL
MODEL 2
REMARK VINA RESULT:      -7.4      1.620      2.056
REMARK  Name = min_compound999.pdb
REMARK  4 active torsions:
REMARK  status: ('A' for Active; 'I' for Inactive)
REMARK    1  A    between atoms: _8  and  _21
REMARK    2  A    between atoms: _11  and  _12
REMARK    3  A    between atoms: _11  and  _18
REMARK    4  A    between atoms: _15  and  _22
REMARK                            x       y       z     vdW  Elec       q    Type
REMARK                         _______ _______ _______ _____ _____    ______ ____
ROOT
ATOM      1  C   UNL     1     -11.596  -1.039 -16.213  0.00  0.00    +0.002 A 
ATOM      2  C   UNL     1     -12.421  -0.030 -16.716  0.00  0.00    +0.030 A 
ATOM      3  C   UNL     1     -12.017   1.300 -16.722  0.00  0.00    +0.091 A 
ATOM      4  N   UNL     1     -12.842   2.249 -17.206  0.00  0.00    -0.227 NA
ATOM      5  C   UNL     1     -12.406   3.528 -17.174  0.00  0.00    +0.160 A 
ATOM      6  N   UNL     1     -13.409   4.357 -17.758  0.00  0.00    -0.198 N 
ATOM      7  H   UNL     1     -14.304   4.001 -17.421  0.00  0.00    +0.175 HD
ATOM      8  C   UNL     1     -11.130   3.857 -16.695  0.00  0.00    +0.080 A 
ATOM      9  C   UNL     1     -10.564   5.239 -16.607  0.00  0.00    +0.069 C 
ATOM     10  N   UNL     1     -10.298   2.893 -16.215  0.00  0.00    -0.247 NA
ATOM     11  C   UNL     1     -10.738   1.624 -16.218  0.00  0.00    +0.090 A 
ATOM     12  C   UNL     1      -9.924   0.616 -15.718  0.00  0.00    +0.030 A 
ATOM     13  C   UNL     1     -10.343  -0.715 -15.710  0.00  0.00    +0.002 A 
ENDROOT
BRANCH   6  14
ATOM     14  S   UNL     1     -13.304   5.853 -17.763  0.00  0.00    +0.074 S 
ATOM     15  O   UNL     1     -13.200   7.350 -17.769  0.00  0.00    -0.150 OA
ATOM     16  O   UNL     1     -14.787   5.788 -17.812  0.00  0.00    -0.150 OA
BRANCH  14  17
ATOM     17  C   UNL     1     -12.799   5.771 -19.562  0.00  0.00    +0.109 A 
ATOM     18  C   UNL     1     -13.424   4.870 -20.428  0.00  0.00    +0.030 A 
ATOM     19  C   UNL     1     -13.038   4.852 -21.772  0.00  0.00    +0.024 A 
ATOM     20  C   UNL     1     -12.049   5.725 -22.251  0.00  0.00    +0.025 A 
ATOM     21  C   UNL     1     -11.384   6.557 -21.346  0.00  0.00    +0.024 A 
ATOM     22  C   UNL     1     -11.777   6.615 -20.009  0.00  0.00    +0.030 A 
BRANCH  20  23
ATOM     23  N   UNL     1     -11.578   5.599 -23.563  0.00  0.00    -0.358 N 
ATOM     24  H   UNL     1     -10.590   5.373 -23.625  0.00  0.00    +0.142 HD
ATOM     25  H   UNL     1     -12.148   4.995 -24.147  0.00  0.00    +0.142 HD
ENDBRANCH  20  23
ENDBRANCH  14  17
ENDBRANCH   6  14
TORSDOF 3
ENDMDL
MODEL 3
REMARK VINA RESULT:      -7.4      2.797      4.127
REMARK  Name = min_compound999.pdb
REMARK  4 active torsions:
REMARK  status: ('A' for Active; 'I' for Inactive)
REMARK    1  A    between atoms: _8  and  _21
REMARK    2  A    between atoms: _11  and  _12
REMARK    3  A    between atoms: _11  and  _18
REMARK    4  A    between atoms: _15  and  _22
REMARK                            x       y       z     vdW  Elec       q    Type
REMARK                         _______ _______ _______ _____ _____    ______ ____
ROOT
ATOM      1  C   UNL     1      -9.976   0.168 -15.500  0.00  0.00    +0.002 A 
ATOM      2  C   UNL     1     -10.265   1.533 -15.578  0.00  0.00    +0.030 A 
ATOM      3  C   UNL     1     -11.110   2.040 -16.558  0.00  0.00    +0.091 A 
ATOM      4  N   UNL     1     -11.359   3.364 -16.610  0.00  0.00    -0.227 NA
ATOM      5  C   UNL     1     -12.174   3.806 -17.592  0.00  0.00    +0.160 A 
ATOM      6  N   UNL     1     -12.328   5.216 -17.445  0.00  0.00    -0.198 N 
ATOM      7  H   UNL     1     -11.407   5.578 -17.197  0.00  0.00    +0.175 HD
ATOM      8  C   UNL     1     -12.775   2.923 -18.500  0.00  0.00    +0.080 A 
ATOM      9  C   UNL     1     -13.679   3.315 -19.626  0.00  0.00    +0.069 C 
ATOM     10  N   UNL     1     -12.526   1.586 -18.439  0.00  0.00    -0.247 NA
ATOM     11  C   UNL     1     -11.693   1.145 -17.482  0.00  0.00    +0.090 A 
ATOM     12  C   UNL     1     -11.400  -0.210 -17.400  0.00  0.00    +0.030 A 
ATOM     13  C   UNL     1     -10.545  -0.706 -16.416  0.00  0.00    +0.002 A 
ENDROOT
BRANCH   6  14
ATOM     14  S   UNL     1     -13.067   6.048 -18.451  0.00  0.00    +0.074 S 
ATOM     15  O   UNL     1     -13.806   6.880 -19.457  0.00  0.00    -0.150 OA
ATOM     16  O   UNL     1     -11.888   6.942 -18.327  0.00  0.00    -0.150 OA
BRANCH  14  17
ATOM     17  C   UNL     1     -14.204   6.622 -17.081  0.00  0.00    +0.109 A 
ATOM     18  C   UNL     1     -14.819   5.691 -16.240  0.00  0.00    +0.030 A 
ATOM     19  C   UNL     1     -15.643   6.157 -15.212  0.00  0.00    +0.024 A 
ATOM     20  C   UNL     1     -15.847   7.531 -15.015  0.00  0.00    +0.025 A 
ATOM     21  C   UNL     1     -15.286   8.436 -15.921  0.00  0.00    +0.024 A 
ATOM     22  C   UNL     1     -14.433   7.994 -16.933  0.00  0.00    +0.030 A 
BRANCH  20  23
ATOM     23  N   UNL     1     -16.782   7.974 -14.072  0.00  0.00    -0.358 N 
ATOM     24  H   UNL     1     -17.276   8.817 -14.347  0.00  0.00    +0.142 HD
ATOM     25  H   UNL     1     -17.413   7.247 -13.748  0.00  0.00    +0.142 HD
ENDBRANCH  20  23
ENDBRANCH  14  17
ENDBRANCH   6  14
TORSDOF 3
ENDMDL
MODEL 4
REMARK VINA RESULT:      -7.3      2.830      5.108
REMARK  Name = min_compound999.pdb
REMARK  4 active torsions:
REMARK  status: ('A' for Active; 'I' for Inactive)
REMARK    1  A    between atoms: _8  and  _21
REMARK    2  A    between atoms: _11  and  _12
REMARK    3  A    between atoms: _11  and  _18
REMARK    4  A    between atoms: _15  and  _22
REMARK                            x       y       z     vdW  Elec       q    Type
REMARK                         _______ _______ _______ _____ _____    ______ ____
ROOT
ATOM      1  C   UNL     1      -9.585  -0.380 -15.846  0.00  0.00    +0.002 A 
ATOM      2  C   UNL     1     -10.354   0.704 -15.412  0.00  0.00    +0.030 A 
ATOM      3  C   UNL     1     -11.294   1.303 -16.241  0.00  0.00    +0.091 A 
ATOM      4  N   UNL     1     -12.012   2.352 -15.794  0.00  0.00    -0.227 NA
ATOM      5  C   UNL     1     -12.900   2.908 -16.647  0.00  0.00    +0.160 A 
ATOM      6  N   UNL     1     -13.569   3.970 -15.967  0.00  0.00    -0.198 N 
ATOM      7  H   UNL     1     -12.855   4.450 -15.419  0.00  0.00    +0.175 HD
ATOM      8  C   UNL     1     -13.103   2.393 -17.935  0.00  0.00    +0.080 A 
ATOM      9  C   UNL     1     -14.051   2.944 -18.953  0.00  0.00    +0.069 C 
ATOM     10  N   UNL     1     -12.381   1.329 -18.379  0.00  0.00    -0.247 NA
ATOM     11  C   UNL     1     -11.476   0.790 -17.545  0.00  0.00    +0.090 A 
ATOM     12  C   UNL     1     -10.706  -0.285 -17.970  0.00  0.00    +0.030 A 
ATOM     13  C   UNL     1      -9.761  -0.874 -17.131  0.00  0.00    +0.002 A 
ENDROOT
BRANCH   6  14
ATOM     14  S   UNL     1     -14.529   4.886 -16.667  0.00  0.00    +0.074 S 
ATOM     15  O   UNL     1     -15.489   5.802 -17.366  0.00  0.00    -0.150 OA
ATOM     16  O   UNL     1     -13.344   5.775 -16.768  0.00  0.00    -0.150 OA
BRANCH  14  17
ATOM     17  C   UNL     1     -15.266   5.317 -15.003  0.00  0.00    +0.109 A 
ATOM     18  C   UNL     1     -16.007   6.491 -14.845  0.00  0.00    +0.030 A 
ATOM     19  C   UNL     1     -16.563   6.770 -13.593  0.00  0.00    +0.024 A 
ATOM     20  C   UNL     1     -16.393   5.890 -12.514  0.00  0.00    +0.025 A 
ATOM     21  C   UNL     1     -15.579   4.766 -12.678  0.00  0.00    +0.024 A 
ATOM     22  C   UNL     1     -15.043   4.451 -13.927  0.00  0.00    +0.030 A 
BRANCH  20  23
ATOM     23  N   UNL     1     -16.837   6.251 -11.237  0.00  0.00    -0.358 N 
ATOM     24  H   UNL     1     -16.486   7.149 -10.917  0.00  0.00    +0.142 HD
ATOM     25  H   UNL     1     -17.841   6.166 -11.112  0.00  0.00    +0.142 HD
ENDBRANCH  20  23
ENDBRANCH  14  17
ENDBRANCH   6  14
TORSDOF 3
ENDMDL
MODEL 5
REMARK VINA RESULT:      -7.1      2.066      6.522
REMARK  Name = min_compound999.pdb
REMARK  4 active torsions:
REMARK  status: ('A' for Active; 'I' for Inactive)
REMARK    1  A    between atoms: _8  and  _21
REMARK    2  A    between atoms: _11  and  _12
REMARK    3  A    between atoms: _11  and  _18
REMARK    4  A    between atoms: _15  and  _22
REMARK                            x       y       z     vdW  Elec       q    Type
REMARK                         _______ _______ _______ _____ _____    ______ ____
ROOT
ATOM      1  C   UNL     1     -11.092   7.743 -21.586  0.00  0.00    +0.002 A 
ATOM      2  C   UNL     1     -11.190   7.184 -20.309  0.00  0.00    +0.030 A 
ATOM      3  C   UNL     1     -12.067   6.141 -20.040  0.00  0.00    +0.091 A 
ATOM      4  N   UNL     1     -12.143   5.632 -18.794  0.00  0.00    -0.227 NA
ATOM      5  C   UNL     1     -13.025   4.630 -18.584  0.00  0.00    +0.160 A 
ATOM      6  N   UNL     1     -12.920   4.220 -17.221  0.00  0.00    -0.198 N 
ATOM      7  H   UNL     1     -12.815   5.076 -16.675  0.00  0.00    +0.175 HD
ATOM      8  C   UNL     1     -13.804   4.107 -19.625  0.00  0.00    +0.080 A 
ATOM      9  C   UNL     1     -14.814   3.010 -19.490  0.00  0.00    +0.069 C 
ATOM     10  N   UNL     1     -13.719   4.620 -20.882  0.00  0.00    -0.247 NA
ATOM     11  C   UNL     1     -12.864   5.635 -21.090  0.00  0.00    +0.090 A 
ATOM     12  C   UNL     1     -12.764   6.197 -22.356  0.00  0.00    +0.030 A 
ATOM     13  C   UNL     1     -11.884   7.248 -22.613  0.00  0.00    +0.002 A 
ENDROOT
BRANCH   6  14
ATOM     14  S   UNL     1     -13.852   3.213 -16.616  0.00  0.00    +0.074 S 
ATOM     15  O   UNL     1     -14.785   2.206 -16.010  0.00  0.00    -0.150 OA
ATOM     16  O   UNL     1     -13.694   4.049 -15.399  0.00  0.00    -0.150 OA
BRANCH  14  17
ATOM     17  C   UNL     1     -12.424   2.010 -16.516  0.00  0.00    +0.109 A 
ATOM     18  C   UNL     1     -11.383   2.228 -15.610  0.00  0.00    +0.030 A 
ATOM     19  C   UNL     1     -10.343   1.296 -15.545  0.00  0.00    +0.024 A 
ATOM     20  C   UNL     1     -10.341   0.157 -16.365  0.00  0.00    +0.025 A 
ATOM     21  C   UNL     1     -11.352   0.008 -17.319  0.00  0.00    +0.024 A 
ATOM     22  C   UNL     1     -12.416   0.907 -17.377  0.00  0.00    +0.030 A 
BRANCH  20  23
ATOM     23  N   UNL     1      -9.228  -0.690 -16.386  0.00  0.00    -0.358 N 
ATOM     24  H   UNL     1      -9.448  -1.653 -16.620  0.00  0.00    +0.142 HD
ATOM     25  H   UNL     1      -8.449  -0.332 -16.931  0.00  0.00    +0.142 HD
ENDBRANCH  20  23
ENDBRANCH  14  17
ENDBRANCH   6  14
TORSDOF 3
ENDMDL
MODEL 6
REMARK VINA RESULT:      -7.1      3.566      6.964
REMARK  Name = min_compound999.pdb
REMARK  4 active torsions:
REMARK  status: ('A' for Active; 'I' for Inactive)
REMARK    1  A    between atoms: _8  and  _21
REMARK    2  A    between atoms: _11  and  _12
REMARK    3  A    between atoms: _11  and  _18
REMARK    4  A    between atoms: _15  and  _22
REMARK                            x       y       z     vdW  Elec       q    Type
REMARK                         _______ _______ _______ _____ _____    ______ ____
ROOT
ATOM      1  C   UNL     1     -16.408   5.333 -10.683  0.00  0.00    +0.002 A 
ATOM      2  C   UNL     1     -15.612   4.541 -11.515  0.00  0.00    +0.030 A 
ATOM      3  C   UNL     1     -15.467   4.830 -12.866  0.00  0.00    +0.091 A 
ATOM      4  N   UNL     1     -14.699   4.040 -13.642  0.00  0.00    -0.227 NA
ATOM      5  C   UNL     1     -14.605   4.357 -14.953  0.00  0.00    +0.160 A 
ATOM      6  N   UNL     1     -13.727   3.422 -15.577  0.00  0.00    -0.198 N 
ATOM      7  H   UNL     1     -13.951   2.510 -15.176  0.00  0.00    +0.175 HD
ATOM      8  C   UNL     1     -15.245   5.485 -15.483  0.00  0.00    +0.080 A 
ATOM      9  C   UNL     1     -15.212   5.911 -16.917  0.00  0.00    +0.069 C 
ATOM     10  N   UNL     1     -16.013   6.284 -14.693  0.00  0.00    -0.247 NA
ATOM     11  C   UNL     1     -16.133   5.957 -13.396  0.00  0.00    +0.090 A 
ATOM     12  C   UNL     1     -16.924   6.738 -12.563  0.00  0.00    +0.030 A 
ATOM     13  C   UNL     1     -17.068   6.434 -11.209  0.00  0.00    +0.002 A 
ENDROOT
BRANCH   6  14
ATOM     14  S   UNL     1     -13.503   3.404 -17.060  0.00  0.00    +0.074 S 
ATOM     15  O   UNL     1     -13.279   3.386 -18.543  0.00  0.00    -0.150 OA
ATOM     16  O   UNL     1     -14.779   2.645 -17.073  0.00  0.00    -0.150 OA
BRANCH  14  17
ATOM     17  C   UNL     1     -12.204   2.082 -16.807  0.00  0.00    +0.109 A 
ATOM     18  C   UNL     1     -12.135   0.988 -17.674  0.00  0.00    +0.030 A 
ATOM     19  C   UNL     1     -11.136   0.032 -17.469  0.00  0.00    +0.024 A 
ATOM     20  C   UNL     1     -10.212   0.165 -16.422  0.00  0.00    +0.025 A 
ATOM     21  C   UNL     1     -10.355   1.225 -15.522  0.00  0.00    +0.024 A 
ATOM     22  C   UNL     1     -11.323   2.208 -15.727  0.00  0.00    +0.030 A 
BRANCH  20  23
ATOM     23  N   UNL     1      -9.309  -0.869 -16.148  0.00  0.00    -0.358 N 
ATOM     24  H   UNL     1      -8.892  -1.282 -16.976  0.00  0.00    +0.142 HD
ATOM     25  H   UNL     1      -8.615  -0.631 -15.446  0.00  0.00    +0.142 HD
ENDBRANCH  20  23
ENDBRANCH  14  17
ENDBRANCH   6  14
TORSDOF 3
ENDMDL
MODEL 7
REMARK VINA RESULT:      -7.0      8.955     10.682
REMARK  Name = min_compound999.pdb
REMARK  4 active torsions:
REMARK  status: ('A' for Active; 'I' for Inactive)
REMARK    1  A    between atoms: _8  and  _21
REMARK    2  A    between atoms: _11  and  _12
REMARK    3  A    between atoms: _11  and  _18
REMARK    4  A    between atoms: _15  and  _22
REMARK                            x       y       z     vdW  Elec       q    Type
REMARK                         _______ _______ _______ _____ _____    ______ ____
ROOT
ATOM      1  C   UNL     1     -13.757  -0.169  -4.807  0.00  0.00    +0.002 A 
ATOM      2  C   UNL     1     -14.141   0.238  -6.088  0.00  0.00    +0.030 A 
ATOM      3  C   UNL     1     -15.118   1.208  -6.277  0.00  0.00    +0.091 A 
ATOM      4  N   UNL     1     -15.472   1.569  -7.526  0.00  0.00    -0.227 NA
ATOM      5  C   UNL     1     -16.439   2.505  -7.653  0.00  0.00    +0.160 A 
ATOM      6  N   UNL     1     -16.633   2.762  -9.043  0.00  0.00    -0.198 N 
ATOM      7  H   UNL     1     -16.585   1.855  -9.509  0.00  0.00    +0.175 HD
ATOM      8  C   UNL     1     -17.027   3.109  -6.534  0.00  0.00    +0.080 A 
ATOM      9  C   UNL     1     -18.110   4.141  -6.571  0.00  0.00    +0.069 C 
ATOM     10  N   UNL     1     -16.661   2.746  -5.275  0.00  0.00    -0.247 NA
ATOM     11  C   UNL     1     -15.721   1.796  -5.143  0.00  0.00    +0.090 A 
ATOM     12  C   UNL     1     -15.336   1.385  -3.874  0.00  0.00    +0.030 A 
ATOM     13  C   UNL     1     -14.358   0.406  -3.696  0.00  0.00    +0.002 A 
ENDROOT
BRANCH   6  14
ATOM     14  S   UNL     1     -17.728   3.655  -9.545  0.00  0.00    +0.074 S 
ATOM     15  O   UNL     1     -18.823   4.548 -10.047  0.00  0.00    -0.150 OA
ATOM     16  O   UNL     1     -18.491   2.385  -9.639  0.00  0.00    -0.150 OA
BRANCH  14  17
ATOM     17  C   UNL     1     -16.837   3.758 -11.186  0.00  0.00    +0.109 A 
ATOM     18  C   UNL     1     -17.298   3.029 -12.285  0.00  0.00    +0.030 A 
ATOM     19  C   UNL     1     -16.622   3.149 -13.502  0.00  0.00    +0.024 A 
ATOM     20  C   UNL     1     -15.506   3.989 -13.629  0.00  0.00    +0.025 A 
ATOM     21  C   UNL     1     -15.016   4.642 -12.494  0.00  0.00    +0.024 A 
ATOM     22  C   UNL     1     -15.696   4.563 -11.279  0.00  0.00    +0.030 A 
BRANCH  20  23
ATOM     23  N   UNL     1     -14.759   3.990 -14.813  0.00  0.00    -0.358 N 
ATOM     24  H   UNL     1     -13.872   3.503 -14.741  0.00  0.00    +0.142 HD
ATOM     25  H   UNL     1     -15.288   3.706 -15.632  0.00  0.00    +0.142 HD
ENDBRANCH  20  23
ENDBRANCH  14  17
ENDBRANCH   6  14
TORSDOF 3
ENDMDL
MODEL 8
REMARK VINA RESULT:      -7.0      3.903      6.338
REMARK  Name = min_compound999.pdb
REMARK  4 active torsions:
REMARK  status: ('A' for Active; 'I' for Inactive)
REMARK    1  A    between atoms: _8  and  _21
REMARK    2  A    between atoms: _11  and  _12
REMARK    3  A    between atoms: _11  and  _18
REMARK    4  A    between atoms: _15  and  _22
REMARK                            x       y       z     vdW  Elec       q    Type
REMARK                         _______ _______ _______ _____ _____    ______ ____
ROOT
ATOM      1  C   UNL     1     -10.023   1.292 -16.458  0.00  0.00    +0.002 A 
ATOM      2  C   UNL     1     -10.818   2.128 -15.669  0.00  0.00    +0.030 A 
ATOM      3  C   UNL     1     -12.076   2.540 -16.091  0.00  0.00    +0.091 A 
ATOM      4  N   UNL     1     -12.812   3.355 -15.310  0.00  0.00    -0.227 NA
ATOM      5  C   UNL     1     -14.021   3.739 -15.776  0.00  0.00    +0.160 A 
ATOM      6  N   UNL     1     -14.640   4.562 -14.788  0.00  0.00    -0.198 N 
ATOM      7  H   UNL     1     -13.903   5.161 -14.415  0.00  0.00    +0.175 HD
ATOM      8  C   UNL     1     -14.515   3.279 -17.004  0.00  0.00    +0.080 A 
ATOM      9  C   UNL     1     -15.831   3.656 -17.609  0.00  0.00    +0.069 C 
ATOM     10  N   UNL     1     -13.770   2.451 -17.786  0.00  0.00    -0.247 NA
ATOM     11  C   UNL     1     -12.556   2.089 -17.341  0.00  0.00    +0.090 A 
ATOM     12  C   UNL     1     -11.760   1.260 -18.120  0.00  0.00    +0.030 A 
ATOM     13  C   UNL     1     -10.495   0.858 -17.689  0.00  0.00    +0.002 A 
ENDROOT
BRANCH   6  14
ATOM     14  S   UNL     1     -15.940   5.268 -15.037  0.00  0.00    +0.074 S 
ATOM     15  O   UNL     1     -17.240   5.973 -15.286  0.00  0.00    -0.150 OA
ATOM     16  O   UNL     1     -15.058   6.396 -15.430  0.00  0.00    -0.150 OA
BRANCH  14  17
ATOM     17  C   UNL     1     -16.132   5.480 -13.189  0.00  0.00    +0.109 A 
ATOM     18  C   UNL     1     -17.091   6.358 -12.677  0.00  0.00    +0.030 A 
ATOM     19  C   UNL     1     -17.224   6.473 -11.290  0.00  0.00    +0.024 A 
ATOM     20  C   UNL     1     -16.420   5.720 -10.422  0.00  0.00    +0.025 A 
ATOM     21  C   UNL     1     -15.414   4.912 -10.960  0.00  0.00    +0.024 A 
ATOM     22  C   UNL     1     -15.287   4.756 -12.341  0.00  0.00    +0.030 A 
BRANCH  20  23
ATOM     23  N   UNL     1     -16.469   5.950  -9.043  0.00  0.00    -0.358 N 
ATOM     24  H   UNL     1     -16.551   6.929  -8.791  0.00  0.00    +0.142 HD
ATOM     25  H   UNL     1     -17.145   5.370  -8.554  0.00  0.00    +0.142 HD
ENDBRANCH  20  23
ENDBRANCH  14  17
ENDBRANCH   6  14
TORSDOF 3
ENDMDL
MODEL 9
REMARK VINA RESULT:      -6.8      4.558      7.367
REMARK  Name = min_compound999.pdb
REMARK  4 active torsions:
REMARK  status: ('A' for Active; 'I' for Inactive)
REMARK    1  A    between atoms: _8  and  _21
REMARK    2  A    between atoms: _11  and  _12
REMARK    3  A    between atoms: _11  and  _18
REMARK    4  A    between atoms: _15  and  _22
REMARK                            x       y       z     vdW  Elec       q    Type
REMARK                         _______ _______ _______ _____ _____    ______ ____
ROOT
ATOM      1  C   UNL     1     -16.729   4.763  -8.939  0.00  0.00    +0.002 A 
ATOM      2  C   UNL     1     -16.057   4.169 -10.011  0.00  0.00    +0.030 A 
ATOM      3  C   UNL     1     -15.981   4.791 -11.252  0.00  0.00    +0.091 A 
ATOM      4  N   UNL     1     -15.333   4.185 -12.267  0.00  0.00    -0.227 NA
ATOM      5  C   UNL     1     -15.303   4.825 -13.456  0.00  0.00    +0.160 A 
ATOM      6  N   UNL     1     -14.546   4.034 -14.371  0.00  0.00    -0.198 N 
ATOM      7  H   UNL     1     -14.814   3.065 -14.198  0.00  0.00    +0.175 HD
ATOM      8  C   UNL     1     -15.886   6.089 -13.625  0.00  0.00    +0.080 A 
ATOM      9  C   UNL     1     -15.916   6.870 -14.901  0.00  0.00    +0.069 C 
ATOM     10  N   UNL     1     -16.532   6.699 -12.595  0.00  0.00    -0.247 NA
ATOM     11  C   UNL     1     -16.589   6.054 -11.418  0.00  0.00    +0.090 A 
ATOM     12  C   UNL     1     -17.258   6.637 -10.349  0.00  0.00    +0.030 A 
ATOM     13  C   UNL     1     -17.333   6.001  -9.110  0.00  0.00    +0.002 A 
ENDROOT
BRANCH   6  14
ATOM     14  S   UNL     1     -14.426   4.390 -15.823  0.00  0.00    +0.074 S 
ATOM     15  O   UNL     1     -14.305   4.745 -17.276  0.00  0.00    -0.150 OA
ATOM     16  O   UNL     1     -15.635   3.539 -15.958  0.00  0.00    -0.150 OA
BRANCH  14  17
ATOM     17  C   UNL     1     -13.012   3.173 -15.962  0.00  0.00    +0.109 A 
ATOM     18  C   UNL     1     -11.722   3.545 -15.573  0.00  0.00    +0.030 A 
ATOM     19  C   UNL     1     -10.694   2.603 -15.667  0.00  0.00    +0.024 A 
ATOM     20  C   UNL     1     -10.945   1.304 -16.133  0.00  0.00    +0.025 A 
ATOM     21  C   UNL     1     -12.226   0.984 -16.592  0.00  0.00    +0.024 A 
ATOM     22  C   UNL     1     -13.274   1.898 -16.475  0.00  0.00    +0.030 A 
BRANCH  20  23
ATOM     23  N   UNL     1      -9.883   0.419 -16.352  0.00  0.00    -0.358 N 
ATOM     24  H   UNL     1      -9.725  -0.231 -15.589  0.00  0.00    +0.142 HD
ATOM     25  H   UNL     1      -9.917  -0.047 -17.253  0.00  0.00    +0.142 HD
ENDBRANCH  20  23
ENDBRANCH  14  17
ENDBRANCH   6  14
TORSDOF 3
ENDMDL
