MODEL 1
REMARK VINA RESULT:      -7.0      0.000      0.000
REMARK  Name = min_compound923.pdb
REMARK  3 active torsions:
REMARK  status: ('A' for Active; 'I' for Inactive)
REMARK    1  A    between atoms: _5  and  _7
REMARK    2  A    between atoms: _6  and  _17
REMARK    3  A    between atoms: _9  and  _18
REMARK                            x       y       z     vdW  Elec       q    Type
REMARK                         _______ _______ _______ _____ _____    ______ ____
ROOT
ATOM      1  C   UNL     1     -12.253   2.263 -17.591  0.00  0.00    +0.250 C 
ATOM      2  N   UNL     1     -12.150   3.377 -16.780  0.00  0.00    -0.280 N 
ATOM      3  H   UNL     1     -11.712   3.179 -15.880  0.00  0.00    +0.155 HD
ATOM      4  O   UNL     1     -13.042   2.108 -18.515  0.00  0.00    -0.270 OA
ENDROOT
BRANCH   2   5
ATOM      5  C   UNL     1     -12.893   4.573 -16.883  0.00  0.00    +0.052 A 
ATOM      6  C   UNL     1     -12.275   5.592 -17.629  0.00  0.00    +0.026 A 
ATOM      7  C   UNL     1     -12.876   6.845 -17.772  0.00  0.00    +0.022 A 
ATOM      8  C   UNL     1     -14.115   7.083 -17.188  0.00  0.00    +0.042 A 
ATOM      9 CL   UNL     1     -14.856   8.626 -17.363  0.00  0.00    -0.083 Cl
ATOM     10  C   UNL     1     -14.770   6.072 -16.492  0.00  0.00    +0.041 A 
ATOM     11  C   UNL     1     -14.174   4.811 -16.353  0.00  0.00    +0.064 A 
ATOM     12 CL   UNL     1     -15.190   3.572 -15.700  0.00  0.00    -0.082 Cl
ENDBRANCH   2   5
BRANCH   1  17
ATOM     13  C   UNL     1      -9.083   0.240 -17.282  0.00  0.00    +0.001 A 
ATOM     14  C   UNL     1      -9.521  -0.917 -16.646  0.00  0.00    +0.002 A 
ATOM     15  C   UNL     1     -10.866  -1.058 -16.298  0.00  0.00    +0.023 A 
ATOM     16  C   UNL     1     -11.786  -0.029 -16.546  0.00  0.00    +0.037 A 
ATOM     17  C   UNL     1     -11.344   1.129 -17.224  0.00  0.00    +0.058 A 
ATOM     18  C   UNL     1      -9.992   1.256 -17.578  0.00  0.00    +0.015 A 
BRANCH  16  19
ATOM     19  N   UNL     1     -13.168  -0.287 -16.321  0.00  0.00    -0.357 N 
ATOM     20  H   UNL     1     -13.444   0.165 -15.444  0.00  0.00    +0.142 HD
ATOM     21  H   UNL     1     -13.739   0.107 -17.069  0.00  0.00    +0.142 HD
ENDBRANCH  16  19
ENDBRANCH   1  17
TORSDOF 3
ENDMDL
MODEL 2
REMARK VINA RESULT:      -6.8      2.132      2.662
REMARK  Name = min_compound923.pdb
REMARK  3 active torsions:
REMARK  status: ('A' for Active; 'I' for Inactive)
REMARK    1  A    between atoms: _5  and  _7
REMARK    2  A    between atoms: _6  and  _17
REMARK    3  A    between atoms: _9  and  _18
REMARK                            x       y       z     vdW  Elec       q    Type
REMARK                         _______ _______ _______ _____ _____    ______ ____
ROOT
ATOM      1  C   UNL     1     -11.902   2.913 -16.062  0.00  0.00    +0.250 C 
ATOM      2  N   UNL     1     -13.260   2.881 -15.815  0.00  0.00    -0.280 N 
ATOM      3  H   UNL     1     -13.716   2.045 -16.182  0.00  0.00    +0.155 HD
ATOM      4  O   UNL     1     -11.192   3.911 -16.091  0.00  0.00    -0.270 OA
ENDROOT
BRANCH   2   5
ATOM      5  C   UNL     1     -14.091   3.978 -15.498  0.00  0.00    +0.052 A 
ATOM      6  C   UNL     1     -14.498   4.045 -14.154  0.00  0.00    +0.026 A 
ATOM      7  C   UNL     1     -15.360   5.051 -13.712  0.00  0.00    +0.022 A 
ATOM      8  C   UNL     1     -15.807   6.016 -14.608  0.00  0.00    +0.042 A 
ATOM      9 CL   UNL     1     -16.869   7.255 -14.065  0.00  0.00    -0.083 Cl
ATOM     10  C   UNL     1     -15.374   6.001 -15.930  0.00  0.00    +0.041 A 
ATOM     11  C   UNL     1     -14.502   4.998 -16.376  0.00  0.00    +0.064 A 
ATOM     12 CL   UNL     1     -13.835   5.235 -17.955  0.00  0.00    -0.082 Cl
ENDBRANCH   2   5
BRANCH   1  17
ATOM     13  C   UNL     1      -9.764  -0.176 -15.704  0.00  0.00    +0.001 A 
ATOM     14  C   UNL     1     -10.028  -0.866 -16.884  0.00  0.00    +0.002 A 
ATOM     15  C   UNL     1     -10.917  -0.337 -17.821  0.00  0.00    +0.023 A 
ATOM     16  C   UNL     1     -11.587   0.871 -17.577  0.00  0.00    +0.037 A 
ATOM     17  C   UNL     1     -11.290   1.586 -16.395  0.00  0.00    +0.058 A 
ATOM     18  C   UNL     1     -10.386   1.050 -15.464  0.00  0.00    +0.015 A 
BRANCH  16  19
ATOM     19  N   UNL     1     -12.355   1.444 -18.629  0.00  0.00    -0.357 N 
ATOM     20  H   UNL     1     -12.461   0.746 -19.372  0.00  0.00    +0.142 HD
ATOM     21  H   UNL     1     -13.288   1.698 -18.303  0.00  0.00    +0.142 HD
ENDBRANCH  16  19
ENDBRANCH   1  17
TORSDOF 3
ENDMDL
MODEL 3
REMARK VINA RESULT:      -6.7      3.270      3.763
REMARK  Name = min_compound923.pdb
REMARK  3 active torsions:
REMARK  status: ('A' for Active; 'I' for Inactive)
REMARK    1  A    between atoms: _5  and  _7
REMARK    2  A    between atoms: _6  and  _17
REMARK    3  A    between atoms: _9  and  _18
REMARK                            x       y       z     vdW  Elec       q    Type
REMARK                         _______ _______ _______ _____ _____    ______ ____
ROOT
ATOM      1  C   UNL     1     -11.957   2.144 -18.041  0.00  0.00    +0.250 C 
ATOM      2  N   UNL     1     -12.758   1.572 -19.010  0.00  0.00    -0.280 N 
ATOM      3  H   UNL     1     -12.470   0.626 -19.262  0.00  0.00    +0.155 HD
ATOM      4  O   UNL     1     -11.818   3.343 -17.829  0.00  0.00    -0.270 OA
ENDROOT
BRANCH   2   5
ATOM      5  C   UNL     1     -13.612   2.244 -19.911  0.00  0.00    +0.052 A 
ATOM      6  C   UNL     1     -13.408   1.933 -21.267  0.00  0.00    +0.026 A 
ATOM      7  C   UNL     1     -14.150   2.560 -22.270  0.00  0.00    +0.022 A 
ATOM      8  C   UNL     1     -15.123   3.492 -21.924  0.00  0.00    +0.042 A 
ATOM      9 CL   UNL     1     -16.037   4.266 -23.158  0.00  0.00    -0.083 Cl
ATOM     10  C   UNL     1     -15.380   3.775 -20.587  0.00  0.00    +0.041 A 
ATOM     11  C   UNL     1     -14.643   3.142 -19.576  0.00  0.00    +0.064 A 
ATOM     12 CL   UNL     1     -15.227   3.377 -17.965  0.00  0.00    -0.082 Cl
ENDBRANCH   2   5
BRANCH   1  17
ATOM     13  C   UNL     1     -10.103  -1.024 -17.169  0.00  0.00    +0.001 A 
ATOM     14  C   UNL     1      -9.656  -0.769 -15.876  0.00  0.00    +0.002 A 
ATOM     15  C   UNL     1      -9.947   0.451 -15.263  0.00  0.00    +0.023 A 
ATOM     16  C   UNL     1     -10.656   1.451 -15.946  0.00  0.00    +0.037 A 
ATOM     17  C   UNL     1     -11.139   1.174 -17.245  0.00  0.00    +0.058 A 
ATOM     18  C   UNL     1     -10.850  -0.061 -17.848  0.00  0.00    +0.015 A 
BRANCH  16  19
ATOM     19  N   UNL     1     -11.064   2.606 -15.223  0.00  0.00    -0.357 N 
ATOM     20  H   UNL     1     -10.631   2.579 -14.295  0.00  0.00    +0.142 HD
ATOM     21  H   UNL     1     -10.750   3.458 -15.689  0.00  0.00    +0.142 HD
ENDBRANCH  16  19
ENDBRANCH   1  17
TORSDOF 3
ENDMDL
MODEL 4
REMARK VINA RESULT:      -6.6     13.426     14.568
REMARK  Name = min_compound923.pdb
REMARK  3 active torsions:
REMARK  status: ('A' for Active; 'I' for Inactive)
REMARK    1  A    between atoms: _5  and  _7
REMARK    2  A    between atoms: _6  and  _17
REMARK    3  A    between atoms: _9  and  _18
REMARK                            x       y       z     vdW  Elec       q    Type
REMARK                         _______ _______ _______ _____ _____    ______ ____
ROOT
ATOM      1  C   UNL     1     -15.213  -2.419  -3.076  0.00  0.00    +0.250 C 
ATOM      2  N   UNL     1     -14.496  -2.166  -4.228  0.00  0.00    -0.280 N 
ATOM      3  H   UNL     1     -13.600  -2.654  -4.259  0.00  0.00    +0.155 HD
ATOM      4  O   UNL     1     -16.093  -1.711  -2.598  0.00  0.00    -0.270 OA
ENDROOT
BRANCH   2   5
ATOM      5  C   UNL     1     -14.663  -1.078  -5.111  0.00  0.00    +0.052 A 
ATOM      6  C   UNL     1     -15.401  -1.364  -6.273  0.00  0.00    +0.026 A 
ATOM      7  C   UNL     1     -15.604  -0.392  -7.256  0.00  0.00    +0.022 A 
ATOM      8  C   UNL     1     -15.087   0.886  -7.075  0.00  0.00    +0.042 A 
ATOM      9 CL   UNL     1     -15.334   2.084  -8.285  0.00  0.00    -0.083 Cl
ATOM     10  C   UNL     1     -14.400   1.207  -5.909  0.00  0.00    +0.041 A 
ATOM     11  C   UNL     1     -14.202   0.238  -4.916  0.00  0.00    +0.064 A 
ATOM     12 CL   UNL     1     -13.570   0.822  -3.415  0.00  0.00    -0.082 Cl
ENDBRANCH   2   5
BRANCH   1  17
ATOM     13  C   UNL     1     -13.003  -4.791  -1.147  0.00  0.00    +0.001 A 
ATOM     14  C   UNL     1     -13.837  -5.886  -0.943  0.00  0.00    +0.002 A 
ATOM     15  C   UNL     1     -15.146  -5.869  -1.429  0.00  0.00    +0.023 A 
ATOM     16  C   UNL     1     -15.655  -4.742  -2.092  0.00  0.00    +0.037 A 
ATOM     17  C   UNL     1     -14.794  -3.647  -2.327  0.00  0.00    +0.058 A 
ATOM     18  C   UNL     1     -13.476  -3.679  -1.844  0.00  0.00    +0.015 A 
BRANCH  16  19
ATOM     19  N   UNL     1     -16.935  -4.838  -2.706  0.00  0.00    -0.357 N 
ATOM     20  H   UNL     1     -17.224  -5.821  -2.704  0.00  0.00    +0.142 HD
ATOM     21  H   UNL     1     -17.631  -4.307  -2.181  0.00  0.00    +0.142 HD
ENDBRANCH  16  19
ENDBRANCH   1  17
TORSDOF 3
ENDMDL
MODEL 5
REMARK VINA RESULT:      -6.6      2.655      6.678
REMARK  Name = min_compound923.pdb
REMARK  3 active torsions:
REMARK  status: ('A' for Active; 'I' for Inactive)
REMARK    1  A    between atoms: _5  and  _7
REMARK    2  A    between atoms: _6  and  _17
REMARK    3  A    between atoms: _9  and  _18
REMARK                            x       y       z     vdW  Elec       q    Type
REMARK                         _______ _______ _______ _____ _____    ______ ____
ROOT
ATOM      1  C   UNL     1     -13.887   4.234 -16.580  0.00  0.00    +0.250 C 
ATOM      2  N   UNL     1     -12.530   4.020 -16.726  0.00  0.00    -0.280 N 
ATOM      3  H   UNL     1     -12.039   4.817 -17.131  0.00  0.00    +0.155 HD
ATOM      4  O   UNL     1     -14.753   3.370 -16.496  0.00  0.00    -0.270 OA
ENDROOT
BRANCH   2   5
ATOM      5  C   UNL     1     -11.865   2.775 -16.755  0.00  0.00    +0.052 A 
ATOM      6  C   UNL     1     -11.152   2.456 -15.586  0.00  0.00    +0.026 A 
ATOM      7  C   UNL     1     -10.408   1.277 -15.495  0.00  0.00    +0.022 A 
ATOM      8  C   UNL     1     -10.390   0.392 -16.567  0.00  0.00    +0.042 A 
ATOM      9 CL   UNL     1      -9.474  -1.060 -16.456  0.00  0.00    -0.083 Cl
ATOM     10  C   UNL     1     -11.132   0.661 -17.712  0.00  0.00    +0.041 A 
ATOM     11  C   UNL     1     -11.886   1.839 -17.805  0.00  0.00    +0.064 A 
ATOM     12 CL   UNL     1     -12.962   1.933 -19.156  0.00  0.00    -0.082 Cl
ENDBRANCH   2   5
BRANCH   1  17
ATOM     13  C   UNL     1     -14.087   7.828 -17.710  0.00  0.00    +0.001 A 
ATOM     14  C   UNL     1     -14.953   8.392 -16.778  0.00  0.00    +0.002 A 
ATOM     15  C   UNL     1     -15.496   7.605 -15.761  0.00  0.00    +0.023 A 
ATOM     16  C   UNL     1     -15.213   6.233 -15.682  0.00  0.00    +0.037 A 
ATOM     17  C   UNL     1     -14.306   5.672 -16.609  0.00  0.00    +0.058 A 
ATOM     18  C   UNL     1     -13.758   6.475 -17.621  0.00  0.00    +0.015 A 
BRANCH  16  19
ATOM     19  N   UNL     1     -15.659   5.514 -14.538  0.00  0.00    -0.357 N 
ATOM     20  H   UNL     1     -16.676   5.399 -14.602  0.00  0.00    +0.142 HD
ATOM     21  H   UNL     1     -15.242   4.583 -14.506  0.00  0.00    +0.142 HD
ENDBRANCH  16  19
ENDBRANCH   1  17
TORSDOF 3
ENDMDL
MODEL 6
REMARK VINA RESULT:      -6.5      2.588      3.761
REMARK  Name = min_compound923.pdb
REMARK  3 active torsions:
REMARK  status: ('A' for Active; 'I' for Inactive)
REMARK    1  A    between atoms: _5  and  _7
REMARK    2  A    between atoms: _6  and  _17
REMARK    3  A    between atoms: _9  and  _18
REMARK                            x       y       z     vdW  Elec       q    Type
REMARK                         _______ _______ _______ _____ _____    ______ ____
ROOT
ATOM      1  C   UNL     1     -12.897   2.375 -16.120  0.00  0.00    +0.250 C 
ATOM      2  N   UNL     1     -14.171   1.907 -16.377  0.00  0.00    -0.280 N 
ATOM      3  H   UNL     1     -14.194   1.169 -17.080  0.00  0.00    +0.155 HD
ATOM      4  O   UNL     1     -12.606   3.467 -15.645  0.00  0.00    -0.270 OA
ENDROOT
BRANCH   2   5
ATOM      5  C   UNL     1     -15.389   2.564 -16.097  0.00  0.00    +0.052 A 
ATOM      6  C   UNL     1     -15.992   2.203 -14.880  0.00  0.00    +0.026 A 
ATOM      7  C   UNL     1     -17.224   2.740 -14.498  0.00  0.00    +0.022 A 
ATOM      8  C   UNL     1     -17.856   3.664 -15.324  0.00  0.00    +0.042 A 
ATOM      9 CL   UNL     1     -19.373   4.326 -14.856  0.00  0.00    -0.083 Cl
ATOM     10  C   UNL     1     -17.251   4.077 -16.507  0.00  0.00    +0.041 A 
ATOM     11  C   UNL     1     -16.011   3.547 -16.889  0.00  0.00    +0.064 A 
ATOM     12 CL   UNL     1     -15.247   4.325 -18.232  0.00  0.00    -0.082 Cl
ENDBRANCH   2   5
BRANCH   1  17
ATOM     13  C   UNL     1     -11.018  -0.836 -16.747  0.00  0.00    +0.001 A 
ATOM     14  C   UNL     1      -9.808  -0.384 -17.264  0.00  0.00    +0.002 A 
ATOM     15  C   UNL     1      -9.582   0.984 -17.424  0.00  0.00    +0.023 A 
ATOM     16  C   UNL     1     -10.577   1.921 -17.107  0.00  0.00    +0.037 A 
ATOM     17  C   UNL     1     -11.791   1.460 -16.550  0.00  0.00    +0.058 A 
ATOM     18  C   UNL     1     -12.003   0.082 -16.383  0.00  0.00    +0.015 A 
BRANCH  16  19
ATOM     19  N   UNL     1     -10.240   3.303 -17.135  0.00  0.00    -0.357 N 
ATOM     20  H   UNL     1     -10.842   3.771 -17.820  0.00  0.00    +0.142 HD
ATOM     21  H   UNL     1     -10.404   3.737 -16.227  0.00  0.00    +0.142 HD
ENDBRANCH  16  19
ENDBRANCH   1  17
TORSDOF 3
ENDMDL
MODEL 7
REMARK VINA RESULT:      -6.5      1.924      2.357
REMARK  Name = min_compound923.pdb
REMARK  3 active torsions:
REMARK  status: ('A' for Active; 'I' for Inactive)
REMARK    1  A    between atoms: _5  and  _7
REMARK    2  A    between atoms: _6  and  _17
REMARK    3  A    between atoms: _9  and  _18
REMARK                            x       y       z     vdW  Elec       q    Type
REMARK                         _______ _______ _______ _____ _____    ______ ____
ROOT
ATOM      1  C   UNL     1     -13.080   3.308 -16.080  0.00  0.00    +0.250 C 
ATOM      2  N   UNL     1     -13.253   3.984 -17.272  0.00  0.00    -0.280 N 
ATOM      3  H   UNL     1     -12.539   3.761 -17.967  0.00  0.00    +0.155 HD
ATOM      4  O   UNL     1     -13.519   3.643 -14.985  0.00  0.00    -0.270 OA
ENDROOT
BRANCH   2   5
ATOM      5  C   UNL     1     -14.006   5.159 -17.480  0.00  0.00    +0.052 A 
ATOM      6  C   UNL     1     -13.252   6.344 -17.545  0.00  0.00    +0.026 A 
ATOM      7  C   UNL     1     -13.872   7.586 -17.700  0.00  0.00    +0.022 A 
ATOM      8  C   UNL     1     -15.256   7.653 -17.814  0.00  0.00    +0.042 A 
ATOM      9 CL   UNL     1     -16.022   9.181 -18.003  0.00  0.00    -0.083 Cl
ATOM     10  C   UNL     1     -16.019   6.489 -17.807  0.00  0.00    +0.041 A 
ATOM     11  C   UNL     1     -15.400   5.240 -17.660  0.00  0.00    +0.064 A 
ATOM     12 CL   UNL     1     -16.416   3.866 -17.928  0.00  0.00    -0.082 Cl
ENDBRANCH   2   5
BRANCH   1  17
ATOM     13  C   UNL     1     -12.072  -0.283 -16.648  0.00  0.00    +0.001 A 
ATOM     14  C   UNL     1     -10.717  -0.272 -16.330  0.00  0.00    +0.002 A 
ATOM     15  C   UNL     1     -10.102   0.914 -15.927  0.00  0.00    +0.023 A 
ATOM     16  C   UNL     1     -10.822   2.117 -15.873  0.00  0.00    +0.037 A 
ATOM     17  C   UNL     1     -12.204   2.095 -16.163  0.00  0.00    +0.058 A 
ATOM     18  C   UNL     1     -12.815   0.894 -16.557  0.00  0.00    +0.015 A 
BRANCH  16  19
ATOM     19  N   UNL     1     -10.191   3.259 -15.304  0.00  0.00    -0.357 N 
ATOM     20  H   UNL     1     -10.004   3.068 -14.315  0.00  0.00    +0.142 HD
ATOM     21  H   UNL     1      -9.298   3.448 -15.761  0.00  0.00    +0.142 HD
ENDBRANCH  16  19
ENDBRANCH   1  17
TORSDOF 3
ENDMDL
MODEL 8
REMARK VINA RESULT:      -6.5      2.988      6.806
REMARK  Name = min_compound923.pdb
REMARK  3 active torsions:
REMARK  status: ('A' for Active; 'I' for Inactive)
REMARK    1  A    between atoms: _5  and  _7
REMARK    2  A    between atoms: _6  and  _17
REMARK    3  A    between atoms: _9  and  _18
REMARK                            x       y       z     vdW  Elec       q    Type
REMARK                         _______ _______ _______ _____ _____    ______ ____
ROOT
ATOM      1  C   UNL     1     -14.069   3.981 -16.144  0.00  0.00    +0.250 C 
ATOM      2  N   UNL     1     -13.073   3.258 -15.518  0.00  0.00    -0.280 N 
ATOM      3  H   UNL     1     -12.781   3.664 -14.628  0.00  0.00    +0.155 HD
ATOM      4  O   UNL     1     -14.334   3.967 -17.341  0.00  0.00    -0.270 OA
ENDROOT
BRANCH   2   5
ATOM      5  C   UNL     1     -12.198   2.325 -16.115  0.00  0.00    +0.052 A 
ATOM      6  C   UNL     1     -12.762   1.065 -16.376  0.00  0.00    +0.026 A 
ATOM      7  C   UNL     1     -11.997   0.031 -16.922  0.00  0.00    +0.022 A 
ATOM      8  C   UNL     1     -10.661   0.257 -17.233  0.00  0.00    +0.042 A 
ATOM      9 CL   UNL     1      -9.717  -1.015 -17.904  0.00  0.00    -0.083 Cl
ATOM     10  C   UNL     1     -10.096   1.512 -17.035  0.00  0.00    +0.041 A 
ATOM     11  C   UNL     1     -10.862   2.555 -16.495  0.00  0.00    +0.064 A 
ATOM     12 CL   UNL     1     -10.130   4.122 -16.540  0.00  0.00    -0.082 Cl
ENDBRANCH   2   5
BRANCH   1  17
ATOM     13  C   UNL     1     -15.789   5.285 -13.050  0.00  0.00    +0.001 A 
ATOM     14  C   UNL     1     -16.265   6.525 -13.466  0.00  0.00    +0.002 A 
ATOM     15  C   UNL     1     -16.027   6.965 -14.769  0.00  0.00    +0.023 A 
ATOM     16  C   UNL     1     -15.277   6.189 -15.666  0.00  0.00    +0.037 A 
ATOM     17  C   UNL     1     -14.827   4.916 -15.251  0.00  0.00    +0.058 A 
ATOM     18  C   UNL     1     -15.081   4.480 -13.941  0.00  0.00    +0.015 A 
BRANCH  16  19
ATOM     19  N   UNL     1     -15.202   6.607 -17.024  0.00  0.00    -0.357 N 
ATOM     20  H   UNL     1     -14.791   7.545 -17.054  0.00  0.00    +0.142 HD
ATOM     21  H   UNL     1     -14.600   5.985 -17.564  0.00  0.00    +0.142 HD
ENDBRANCH  16  19
ENDBRANCH   1  17
TORSDOF 3
ENDMDL
MODEL 9
REMARK VINA RESULT:      -6.4      3.501      6.542
REMARK  Name = min_compound923.pdb
REMARK  3 active torsions:
REMARK  status: ('A' for Active; 'I' for Inactive)
REMARK    1  A    between atoms: _5  and  _7
REMARK    2  A    between atoms: _6  and  _17
REMARK    3  A    between atoms: _9  and  _18
REMARK                            x       y       z     vdW  Elec       q    Type
REMARK                         _______ _______ _______ _____ _____    ______ ____
ROOT
ATOM      1  C   UNL     1     -14.872   2.780 -16.662  0.00  0.00    +0.250 C 
ATOM      2  N   UNL     1     -13.964   1.984 -15.991  0.00  0.00    -0.280 N 
ATOM      3  H   UNL     1     -14.159   1.906 -14.992  0.00  0.00    +0.155 HD
ATOM      4  O   UNL     1     -14.686   3.351 -17.730  0.00  0.00    -0.270 OA
ENDROOT
BRANCH   2   5
ATOM      5  C   UNL     1     -12.668   1.627 -16.421  0.00  0.00    +0.052 A 
ATOM      6  C   UNL     1     -12.509   0.275 -16.770  0.00  0.00    +0.026 A 
ATOM      7  C   UNL     1     -11.268  -0.227 -17.167  0.00  0.00    +0.022 A 
ATOM      8  C   UNL     1     -10.174   0.628 -17.241  0.00  0.00    +0.042 A 
ATOM      9 CL   UNL     1      -8.643   0.012 -17.729  0.00  0.00    -0.083 Cl
ATOM     10  C   UNL     1     -10.319   1.981 -16.953  0.00  0.00    +0.041 A 
ATOM     11  C   UNL     1     -11.565   2.491 -16.562  0.00  0.00    +0.064 A 
ATOM     12 CL   UNL     1     -11.678   4.215 -16.486  0.00  0.00    -0.082 Cl
ENDBRANCH   2   5
BRANCH   1  17
ATOM     13  C   UNL     1     -17.351   2.926 -13.822  0.00  0.00    +0.001 A 
ATOM     14  C   UNL     1     -18.521   3.328 -14.459  0.00  0.00    +0.002 A 
ATOM     15  C   UNL     1     -18.521   3.567 -15.835  0.00  0.00    +0.023 A 
ATOM     16  C   UNL     1     -17.344   3.445 -16.588  0.00  0.00    +0.037 A 
ATOM     17  C   UNL     1     -16.168   3.002 -15.943  0.00  0.00    +0.058 A 
ATOM     18  C   UNL     1     -16.181   2.754 -14.562  0.00  0.00    +0.015 A 
BRANCH  16  19
ATOM     19  N   UNL     1     -17.434   3.541 -18.005  0.00  0.00    -0.357 N 
ATOM     20  H   UNL     1     -17.869   4.438 -18.243  0.00  0.00    +0.142 HD
ATOM     21  H   UNL     1     -16.507   3.520 -18.432  0.00  0.00    +0.142 HD
ENDBRANCH  16  19
ENDBRANCH   1  17
TORSDOF 3
ENDMDL
