MODEL 1
REMARK VINA RESULT:      -6.4      0.000      0.000
REMARK  Name = min_compound941.pdb
REMARK  4 active torsions:
REMARK  status: ('A' for Active; 'I' for Inactive)
REMARK    1  A    between atoms: _2  and  _14
REMARK    2  A    between atoms: _3  and  _15
REMARK    3  A    between atoms: _7  and  _16
REMARK    4  A    between atoms: _9  and  _11
REMARK                            x       y       z     vdW  Elec       q    Type
REMARK                         _______ _______ _______ _____ _____    ______ ____
ROOT
ATOM      1  C   UNL     1     -10.669   1.690 -17.171  0.00  0.00    +0.166 C 
ATOM      2  C   UNL     1     -10.960   1.593 -15.663  0.00  0.00    +0.177 C 
ATOM      3  C   UNL     1     -11.370   3.029 -15.321  0.00  0.00    +0.195 C 
ATOM      4  C   UNL     1     -12.218   3.327 -16.572  0.00  0.00    +0.255 C 
ATOM      5  O   UNL     1     -11.381   2.852 -17.655  0.00  0.00    -0.347 OA
ENDROOT
BRANCH   4   6
ATOM      6  N   UNL     1     -12.685   4.667 -16.876  0.00  0.00    -0.270 N 
ATOM      7  C   UNL     1     -11.953   5.587 -17.591  0.00  0.00    +0.096 A 
ATOM      8  C   UNL     1     -12.434   6.800 -17.860  0.00  0.00    +0.061 A 
ATOM      9  C   UNL     1     -13.789   7.083 -17.360  0.00  0.00    +0.123 A 
ATOM     10  N   UNL     1     -14.365   8.297 -17.610  0.00  0.00    -0.343 N 
ATOM     11  H   UNL     1     -15.192   8.452 -17.041  0.00  0.00    +0.144 HD
ATOM     12  H   UNL     1     -13.752   9.101 -17.654  0.00  0.00    +0.144 HD
ATOM     13  N   UNL     1     -14.482   6.234 -16.670  0.00  0.00    -0.178 NA
ATOM     14  C   UNL     1     -13.961   4.993 -16.384  0.00  0.00    +0.352 A 
ATOM     15  O   UNL     1     -14.597   4.203 -15.689  0.00  0.00    -0.244 OA
ENDBRANCH   4   6
BRANCH   1  17
ATOM     16 CL   UNL     1     -10.006  -0.909 -17.729  0.00  0.00    -0.123 Cl
ATOM     17  C   UNL     1     -11.118   0.462 -17.959  0.00  0.00    +0.143 C 
ENDBRANCH   1  17
BRANCH   2  18
ATOM     18  O   UNL     1      -9.842   1.141 -14.912  0.00  0.00    -0.386 OA
ATOM     19  H   UNL     1     -10.151   0.451 -14.298  0.00  0.00    +0.210 HD
ENDBRANCH   2  18
BRANCH   3  20
ATOM     20  O   UNL     1     -10.205   3.861 -15.201  0.00  0.00    -0.385 OA
ATOM     21  H   UNL     1     -10.113   4.117 -14.265  0.00  0.00    +0.210 HD
ENDBRANCH   3  20
TORSDOF 4
ENDMDL
MODEL 2
REMARK VINA RESULT:      -5.6      3.152      5.784
REMARK  Name = min_compound941.pdb
REMARK  4 active torsions:
REMARK  status: ('A' for Active; 'I' for Inactive)
REMARK    1  A    between atoms: _2  and  _14
REMARK    2  A    between atoms: _3  and  _15
REMARK    3  A    between atoms: _7  and  _16
REMARK    4  A    between atoms: _9  and  _11
REMARK                            x       y       z     vdW  Elec       q    Type
REMARK                         _______ _______ _______ _____ _____    ______ ____
ROOT
ATOM      1  C   UNL     1     -13.484   4.922 -18.784  0.00  0.00    +0.166 C 
ATOM      2  C   UNL     1     -13.925   5.378 -17.382  0.00  0.00    +0.177 C 
ATOM      3  C   UNL     1     -13.653   4.129 -16.537  0.00  0.00    +0.195 C 
ATOM      4  C   UNL     1     -12.312   3.714 -17.170  0.00  0.00    +0.255 C 
ATOM      5  O   UNL     1     -12.577   3.812 -18.591  0.00  0.00    -0.347 OA
ENDROOT
BRANCH   4   6
ATOM      6  N   UNL     1     -11.696   2.431 -16.883  0.00  0.00    -0.270 N 
ATOM      7  C   UNL     1     -12.053   1.256 -17.503  0.00  0.00    +0.096 A 
ATOM      8  C   UNL     1     -11.445   0.107 -17.217  0.00  0.00    +0.061 A 
ATOM      9  C   UNL     1     -10.369   0.177 -16.215  0.00  0.00    +0.123 A 
ATOM     10  N   UNL     1      -9.680  -0.954 -15.879  0.00  0.00    -0.343 N 
ATOM     11  H   UNL     1      -9.125  -0.828 -15.037  0.00  0.00    +0.144 HD
ATOM     12  H   UNL     1     -10.188  -1.829 -15.895  0.00  0.00    +0.144 HD
ATOM     13  N   UNL     1     -10.035   1.272 -15.609  0.00  0.00    -0.178 NA
ATOM     14  C   UNL     1     -10.688   2.446 -15.903  0.00  0.00    +0.352 A 
ATOM     15  O   UNL     1     -10.406   3.477 -15.295  0.00  0.00    -0.244 OA
ENDBRANCH   4   6
BRANCH   1  17
ATOM     16 CL   UNL     1     -11.983   7.199 -18.526  0.00  0.00    -0.123 Cl
ATOM     17  C   UNL     1     -12.780   6.013 -19.586  0.00  0.00    +0.143 C 
ENDBRANCH   1  17
BRANCH   2  18
ATOM     18  O   UNL     1     -15.282   5.793 -17.337  0.00  0.00    -0.386 OA
ATOM     19  H   UNL     1     -15.834   5.053 -17.649  0.00  0.00    +0.210 HD
ENDBRANCH   2  18
BRANCH   3  20
ATOM     20  O   UNL     1     -14.703   3.166 -16.724  0.00  0.00    -0.385 OA
ATOM     21  H   UNL     1     -15.062   2.939 -15.847  0.00  0.00    +0.210 HD
ENDBRANCH   3  20
TORSDOF 4
ENDMDL
MODEL 3
REMARK VINA RESULT:      -5.5      1.803      2.834
REMARK  Name = min_compound941.pdb
REMARK  4 active torsions:
REMARK  status: ('A' for Active; 'I' for Inactive)
REMARK    1  A    between atoms: _2  and  _14
REMARK    2  A    between atoms: _3  and  _15
REMARK    3  A    between atoms: _7  and  _16
REMARK    4  A    between atoms: _9  and  _11
REMARK                            x       y       z     vdW  Elec       q    Type
REMARK                         _______ _______ _______ _____ _____    ______ ____
ROOT
ATOM      1  C   UNL     1     -12.031   2.219 -16.251  0.00  0.00    +0.166 C 
ATOM      2  C   UNL     1     -11.822   2.109 -17.771  0.00  0.00    +0.177 C 
ATOM      3  C   UNL     1     -12.757   3.199 -18.305  0.00  0.00    +0.195 C 
ATOM      4  C   UNL     1     -12.471   4.281 -17.247  0.00  0.00    +0.255 C 
ATOM      5  O   UNL     1     -12.546   3.547 -16.000  0.00  0.00    -0.347 OA
ENDROOT
BRANCH   4   6
ATOM      6  N   UNL     1     -13.278   5.483 -17.146  0.00  0.00    -0.270 N 
ATOM      7  C   UNL     1     -14.473   5.547 -16.467  0.00  0.00    +0.096 A 
ATOM      8  C   UNL     1     -15.168   6.681 -16.388  0.00  0.00    +0.061 A 
ATOM      9  C   UNL     1     -14.575   7.850 -17.057  0.00  0.00    +0.123 A 
ATOM     10  N   UNL     1     -15.214   9.057 -17.008  0.00  0.00    -0.343 N 
ATOM     11  H   UNL     1     -14.831   9.720 -17.676  0.00  0.00    +0.144 HD
ATOM     12  H   UNL     1     -16.226   9.045 -16.991  0.00  0.00    +0.144 HD
ATOM     13  N   UNL     1     -13.462   7.800 -17.717  0.00  0.00    -0.178 NA
ATOM     14  C   UNL     1     -12.767   6.616 -17.804  0.00  0.00    +0.352 A 
ATOM     15  O   UNL     1     -11.735   6.555 -18.470  0.00  0.00    -0.244 OA
ENDBRANCH   4   6
BRANCH   1  17
ATOM     16 CL   UNL     1     -10.120   0.361 -15.620  0.00  0.00    -0.123 Cl
ATOM     17  C   UNL     1     -10.752   2.015 -15.444  0.00  0.00    +0.143 C 
ENDBRANCH   1  17
BRANCH   2  18
ATOM     18  O   UNL     1     -12.128   0.819 -18.280  0.00  0.00    -0.386 OA
ATOM     19  H   UNL     1     -13.051   0.830 -18.592  0.00  0.00    +0.210 HD
ENDBRANCH   2  18
BRANCH   3  20
ATOM     20  O   UNL     1     -14.116   2.732 -18.301  0.00  0.00    -0.385 OA
ATOM     21  H   UNL     1     -14.234   2.157 -17.523  0.00  0.00    +0.210 HD
ENDBRANCH   3  20
TORSDOF 4
ENDMDL
MODEL 4
REMARK VINA RESULT:      -5.5     13.810     15.306
REMARK  Name = min_compound941.pdb
REMARK  4 active torsions:
REMARK  status: ('A' for Active; 'I' for Inactive)
REMARK    1  A    between atoms: _2  and  _14
REMARK    2  A    between atoms: _3  and  _15
REMARK    3  A    between atoms: _7  and  _16
REMARK    4  A    between atoms: _9  and  _11
REMARK                            x       y       z     vdW  Elec       q    Type
REMARK                         _______ _______ _______ _____ _____    ______ ____
ROOT
ATOM      1  C   UNL     1     -13.780   0.655  -4.554  0.00  0.00    +0.166 C 
ATOM      2  C   UNL     1     -14.853   0.589  -5.655  0.00  0.00    +0.177 C 
ATOM      3  C   UNL     1     -15.386  -0.839  -5.501  0.00  0.00    +0.195 C 
ATOM      4  C   UNL     1     -15.406  -0.909  -3.962  0.00  0.00    +0.255 C 
ATOM      5  O   UNL     1     -14.110  -0.375  -3.594  0.00  0.00    -0.347 OA
ENDROOT
BRANCH   4   6
ATOM      6  N   UNL     1     -15.630  -2.157  -3.257  0.00  0.00    -0.270 N 
ATOM      7  C   UNL     1     -14.629  -3.049  -2.945  0.00  0.00    +0.096 A 
ATOM      8  C   UNL     1     -14.884  -4.175  -2.280  0.00  0.00    +0.061 A 
ATOM      9  C   UNL     1     -16.287  -4.393  -1.892  0.00  0.00    +0.123 A 
ATOM     10  N   UNL     1     -16.631  -5.513  -1.189  0.00  0.00    -0.343 N 
ATOM     11  H   UNL     1     -17.636  -5.659  -1.171  0.00  0.00    +0.144 HD
ATOM     12  H   UNL     1     -16.106  -6.358  -1.377  0.00  0.00    +0.144 HD
ATOM     13  N   UNL     1     -17.242  -3.571  -2.195  0.00  0.00    -0.178 NA
ATOM     14  C   UNL     1     -16.963  -2.424  -2.901  0.00  0.00    +0.352 A 
ATOM     15  O   UNL     1     -17.875  -1.667  -3.230  0.00  0.00    -0.244 OA
ENDBRANCH   4   6
BRANCH   1  17
ATOM     16 CL   UNL     1     -15.283   2.853  -3.908  0.00  0.00    -0.123 Cl
ATOM     17  C   UNL     1     -13.720   2.004  -3.843  0.00  0.00    +0.143 C 
ENDBRANCH   1  17
BRANCH   2  18
ATOM     18  O   UNL     1     -14.332   0.849  -6.951  0.00  0.00    -0.386 OA
ATOM     19  H   UNL     1     -14.623   0.131  -7.541  0.00  0.00    +0.210 HD
ENDBRANCH   2  18
BRANCH   3  20
ATOM     20  O   UNL     1     -14.480  -1.774  -6.109  0.00  0.00    -0.385 OA
ATOM     21  H   UNL     1     -14.916  -2.646  -6.129  0.00  0.00    +0.210 HD
ENDBRANCH   3  20
TORSDOF 4
ENDMDL
MODEL 5
REMARK VINA RESULT:      -5.5     10.588     11.618
REMARK  Name = min_compound941.pdb
REMARK  4 active torsions:
REMARK  status: ('A' for Active; 'I' for Inactive)
REMARK    1  A    between atoms: _2  and  _14
REMARK    2  A    between atoms: _3  and  _15
REMARK    3  A    between atoms: _7  and  _16
REMARK    4  A    between atoms: _9  and  _11
REMARK                            x       y       z     vdW  Elec       q    Type
REMARK                         _______ _______ _______ _____ _____    ______ ____
ROOT
ATOM      1  C   UNL     1     -15.831  -0.352  -4.680  0.00  0.00    +0.166 C 
ATOM      2  C   UNL     1     -14.802  -0.771  -5.744  0.00  0.00    +0.177 C 
ATOM      3  C   UNL     1     -15.561  -0.510  -7.048  0.00  0.00    +0.195 C 
ATOM      4  C   UNL     1     -16.234   0.820  -6.656  0.00  0.00    +0.255 C 
ATOM      5  O   UNL     1     -16.761   0.542  -5.335  0.00  0.00    -0.347 OA
ENDROOT
BRANCH   4   6
ATOM      6  N   UNL     1     -17.274   1.420  -7.472  0.00  0.00    -0.270 N 
ATOM      7  C   UNL     1     -18.616   1.166  -7.307  0.00  0.00    +0.096 A 
ATOM      8  C   UNL     1     -19.533   1.757  -8.071  0.00  0.00    +0.061 A 
ATOM      9  C   UNL     1     -19.024   2.697  -9.082  0.00  0.00    +0.123 A 
ATOM     10  N   UNL     1     -19.900   3.361  -9.894  0.00  0.00    -0.343 N 
ATOM     11  H   UNL     1     -19.433   3.804 -10.680  0.00  0.00    +0.144 HD
ATOM     12  H   UNL     1     -20.749   2.876 -10.155  0.00  0.00    +0.144 HD
ATOM     13  N   UNL     1     -17.763   2.930  -9.261  0.00  0.00    -0.178 NA
ATOM     14  C   UNL     1     -16.828   2.296  -8.476  0.00  0.00    +0.352 A 
ATOM     15  O   UNL     1     -15.629   2.480  -8.676  0.00  0.00    -0.244 OA
ENDBRANCH   4   6
BRANCH   1  17
ATOM     16 CL   UNL     1     -13.752   1.271  -3.937  0.00  0.00    -0.123 Cl
ATOM     17  C   UNL     1     -15.211   0.361  -3.480  0.00  0.00    +0.143 C 
ENDBRANCH   1  17
BRANCH   2  18
ATOM     18  O   UNL     1     -14.385  -2.122  -5.607  0.00  0.00    -0.386 OA
ATOM     19  H   UNL     1     -14.946  -2.543  -4.930  0.00  0.00    +0.210 HD
ENDBRANCH   2  18
BRANCH   3  20
ATOM     20  O   UNL     1     -16.491  -1.575  -7.302  0.00  0.00    -0.385 OA
ATOM     21  H   UNL     1     -16.060  -2.414  -7.063  0.00  0.00    +0.210 HD
ENDBRANCH   3  20
TORSDOF 4
ENDMDL
MODEL 6
REMARK VINA RESULT:      -5.4      3.383      5.835
REMARK  Name = min_compound941.pdb
REMARK  4 active torsions:
REMARK  status: ('A' for Active; 'I' for Inactive)
REMARK    1  A    between atoms: _2  and  _14
REMARK    2  A    between atoms: _3  and  _15
REMARK    3  A    between atoms: _7  and  _16
REMARK    4  A    between atoms: _9  and  _11
REMARK                            x       y       z     vdW  Elec       q    Type
REMARK                         _______ _______ _______ _____ _____    ______ ____
ROOT
ATOM      1  C   UNL     1     -14.017   5.146 -16.253  0.00  0.00    +0.166 C 
ATOM      2  C   UNL     1     -13.472   5.602 -17.617  0.00  0.00    +0.177 C 
ATOM      3  C   UNL     1     -12.187   4.778 -17.743  0.00  0.00    +0.195 C 
ATOM      4  C   UNL     1     -12.716   3.446 -17.178  0.00  0.00    +0.255 C 
ATOM      5  O   UNL     1     -13.421   3.856 -15.981  0.00  0.00    -0.347 OA
ENDROOT
BRANCH   4   6
ATOM      6  N   UNL     1     -11.826   2.345 -16.858  0.00  0.00    -0.270 N 
ATOM      7  C   UNL     1     -11.099   2.263 -15.693  0.00  0.00    +0.096 A 
ATOM      8  C   UNL     1     -10.309   1.221 -15.438  0.00  0.00    +0.061 A 
ATOM      9  C   UNL     1     -10.275   0.169 -16.467  0.00  0.00    +0.123 A 
ATOM     10  N   UNL     1      -9.506  -0.943 -16.274  0.00  0.00    -0.343 N 
ATOM     11  H   UNL     1      -9.393  -1.483 -17.128  0.00  0.00    +0.144 HD
ATOM     12  H   UNL     1      -8.643  -0.827 -15.757  0.00  0.00    +0.144 HD
ATOM     13  N   UNL     1     -10.939   0.242 -17.576  0.00  0.00    -0.178 NA
ATOM     14  C   UNL     1     -11.734   1.335 -17.832  0.00  0.00    +0.352 A 
ATOM     15  O   UNL     1     -12.327   1.428 -18.905  0.00  0.00    -0.244 OA
ENDBRANCH   4   6
BRANCH   1  17
ATOM     16 CL   UNL     1     -16.137   4.756 -14.563  0.00  0.00    -0.123 Cl
ATOM     17  C   UNL     1     -15.538   5.014 -16.218  0.00  0.00    +0.143 C 
ENDBRANCH   1  17
BRANCH   2  18
ATOM     18  O   UNL     1     -13.240   7.002 -17.680  0.00  0.00    -0.386 OA
ATOM     19  H   UNL     1     -12.898   7.211 -18.568  0.00  0.00    +0.210 HD
ENDBRANCH   2  18
BRANCH   3  20
ATOM     20  O   UNL     1     -11.141   5.366 -16.953  0.00  0.00    -0.385 OA
ATOM     21  H   UNL     1     -10.289   5.150 -17.373  0.00  0.00    +0.210 HD
ENDBRANCH   3  20
TORSDOF 4
ENDMDL
MODEL 7
REMARK VINA RESULT:      -5.4      1.014      1.014
REMARK  Name = min_compound941.pdb
REMARK  4 active torsions:
REMARK  status: ('A' for Active; 'I' for Inactive)
REMARK    1  A    between atoms: _2  and  _14
REMARK    2  A    between atoms: _3  and  _15
REMARK    3  A    between atoms: _7  and  _16
REMARK    4  A    between atoms: _9  and  _11
REMARK                            x       y       z     vdW  Elec       q    Type
REMARK                         _______ _______ _______ _____ _____    ______ ____
ROOT
ATOM      1  C   UNL     1     -10.747   1.437 -17.271  0.00  0.00    +0.166 C 
ATOM      2  C   UNL     1     -11.013   1.491 -15.757  0.00  0.00    +0.177 C 
ATOM      3  C   UNL     1     -11.540   2.918 -15.573  0.00  0.00    +0.195 C 
ATOM      4  C   UNL     1     -12.423   2.997 -16.833  0.00  0.00    +0.255 C 
ATOM      5  O   UNL     1     -11.560   2.472 -17.871  0.00  0.00    -0.347 OA
ENDROOT
BRANCH   4   6
ATOM      6  N   UNL     1     -13.006   4.250 -17.280  0.00  0.00    -0.270 N 
ATOM      7  C   UNL     1     -12.347   5.457 -17.237  0.00  0.00    +0.096 A 
ATOM      8  C   UNL     1     -12.919   6.577 -17.676  0.00  0.00    +0.061 A 
ATOM      9  C   UNL     1     -14.281   6.438 -18.217  0.00  0.00    +0.123 A 
ATOM     10  N   UNL     1     -14.932   7.534 -18.707  0.00  0.00    -0.343 N 
ATOM     11  H   UNL     1     -15.923   7.360 -18.846  0.00  0.00    +0.144 HD
ATOM     12  H   UNL     1     -14.740   8.424 -18.264  0.00  0.00    +0.144 HD
ATOM     13  N   UNL     1     -14.920   5.311 -18.246  0.00  0.00    -0.178 NA
ATOM     14  C   UNL     1     -14.321   4.169 -17.769  0.00  0.00    +0.352 A 
ATOM     15  O   UNL     1     -14.943   3.108 -17.752  0.00  0.00    -0.244 OA
ENDBRANCH   4   6
BRANCH   1  17
ATOM     16 CL   UNL     1      -9.853  -1.135 -17.572  0.00  0.00    -0.123 Cl
ATOM     17  C   UNL     1     -11.098   0.092 -17.904  0.00  0.00    +0.143 C 
ENDBRANCH   1  17
BRANCH   2  18
ATOM     18  O   UNL     1      -9.853   1.225 -14.982  0.00  0.00    -0.386 OA
ATOM     19  H   UNL     1      -9.988   1.610 -14.097  0.00  0.00    +0.210 HD
ENDBRANCH   2  18
BRANCH   3  20
ATOM     20  O   UNL     1     -10.449   3.853 -15.573  0.00  0.00    -0.385 OA
ATOM     21  H   UNL     1      -9.667   3.403 -15.941  0.00  0.00    +0.210 HD
ENDBRANCH   3  20
TORSDOF 4
ENDMDL
MODEL 8
REMARK VINA RESULT:      -5.4      3.393      5.895
REMARK  Name = min_compound941.pdb
REMARK  4 active torsions:
REMARK  status: ('A' for Active; 'I' for Inactive)
REMARK    1  A    between atoms: _2  and  _14
REMARK    2  A    between atoms: _3  and  _15
REMARK    3  A    between atoms: _7  and  _16
REMARK    4  A    between atoms: _9  and  _11
REMARK                            x       y       z     vdW  Elec       q    Type
REMARK                         _______ _______ _______ _____ _____    ______ ____
ROOT
ATOM      1  C   UNL     1     -14.135   2.956 -19.644  0.00  0.00    +0.166 C 
ATOM      2  C   UNL     1     -14.053   4.120 -18.641  0.00  0.00    +0.177 C 
ATOM      3  C   UNL     1     -13.452   3.440 -17.407  0.00  0.00    +0.195 C 
ATOM      4  C   UNL     1     -12.418   2.548 -18.120  0.00  0.00    +0.255 C 
ATOM      5  O   UNL     1     -13.183   1.961 -19.201  0.00  0.00    -0.347 OA
ENDROOT
BRANCH   4   6
ATOM      6  N   UNL     1     -11.698   1.501 -17.417  0.00  0.00    -0.270 N 
ATOM      7  C   UNL     1     -12.213   0.248 -17.178  0.00  0.00    +0.096 A 
ATOM      8  C   UNL     1     -11.504  -0.685 -16.543  0.00  0.00    +0.061 A 
ATOM      9  C   UNL     1     -10.146  -0.296 -16.132  0.00  0.00    +0.123 A 
ATOM     10  N   UNL     1      -9.345  -1.200 -15.493  0.00  0.00    -0.343 N 
ATOM     11  H   UNL     1      -8.532  -0.760 -15.072  0.00  0.00    +0.144 HD
ATOM     12  H   UNL     1      -9.796  -1.872 -14.885  0.00  0.00    +0.144 HD
ATOM     13  N   UNL     1      -9.656   0.886 -16.333  0.00  0.00    -0.178 NA
ATOM     14  C   UNL     1     -10.409   1.843 -16.972  0.00  0.00    +0.352 A 
ATOM     15  O   UNL     1      -9.964   2.980 -17.122  0.00  0.00    -0.244 OA
ENDBRANCH   4   6
BRANCH   1  17
ATOM     16 CL   UNL     1     -13.352   1.959 -22.072  0.00  0.00    -0.123 Cl
ATOM     17  C   UNL     1     -13.806   3.363 -21.078  0.00  0.00    +0.143 C 
ENDBRANCH   1  17
BRANCH   2  18
ATOM     18  O   UNL     1     -15.314   4.719 -18.385  0.00  0.00    -0.386 OA
ATOM     19  H   UNL     1     -15.815   4.125 -17.796  0.00  0.00    +0.210 HD
ENDBRANCH   2  18
BRANCH   3  20
ATOM     20  O   UNL     1     -14.466   2.702 -16.705  0.00  0.00    -0.385 OA
ATOM     21  H   UNL     1     -14.217   1.760 -16.722  0.00  0.00    +0.210 HD
ENDBRANCH   3  20
TORSDOF 4
ENDMDL
MODEL 9
REMARK VINA RESULT:      -5.2      2.749      3.350
REMARK  Name = min_compound941.pdb
REMARK  4 active torsions:
REMARK  status: ('A' for Active; 'I' for Inactive)
REMARK    1  A    between atoms: _2  and  _14
REMARK    2  A    between atoms: _3  and  _15
REMARK    3  A    between atoms: _7  and  _16
REMARK    4  A    between atoms: _9  and  _11
REMARK                            x       y       z     vdW  Elec       q    Type
REMARK                         _______ _______ _______ _____ _____    ______ ____
ROOT
ATOM      1  C   UNL     1     -10.453   1.979 -16.505  0.00  0.00    +0.166 C 
ATOM      2  C   UNL     1     -10.988   3.166 -15.686  0.00  0.00    +0.177 C 
ATOM      3  C   UNL     1     -11.921   3.854 -16.687  0.00  0.00    +0.195 C 
ATOM      4  C   UNL     1     -12.552   2.595 -17.312  0.00  0.00    +0.255 C 
ATOM      5  O   UNL     1     -11.405   1.748 -17.569  0.00  0.00    -0.347 OA
ENDROOT
BRANCH   4   6
ATOM      6  N   UNL     1     -13.376   2.665 -18.505  0.00  0.00    -0.270 N 
ATOM      7  C   UNL     1     -13.058   2.043 -19.690  0.00  0.00    +0.096 A 
ATOM      8  C   UNL     1     -13.858   2.123 -20.753  0.00  0.00    +0.061 A 
ATOM      9  C   UNL     1     -15.094   2.900 -20.574  0.00  0.00    +0.123 A 
ATOM     10  N   UNL     1     -15.980   3.015 -21.609  0.00  0.00    -0.343 N 
ATOM     11  H   UNL     1     -16.672   3.740 -21.441  0.00  0.00    +0.144 HD
ATOM     12  H   UNL     1     -15.598   3.034 -22.546  0.00  0.00    +0.144 HD
ATOM     13  N   UNL     1     -15.397   3.507 -19.470  0.00  0.00    -0.178 NA
ATOM     14  C   UNL     1     -14.550   3.430 -18.390  0.00  0.00    +0.352 A 
ATOM     15  O   UNL     1     -14.812   4.044 -17.357  0.00  0.00    -0.244 OA
ENDBRANCH   4   6
BRANCH   1  17
ATOM     16 CL   UNL     1     -10.567  -0.752 -16.681  0.00  0.00    -0.123 Cl
ATOM     17  C   UNL     1     -10.291   0.699 -15.689  0.00  0.00    +0.143 C 
ENDBRANCH   1  17
BRANCH   2  18
ATOM     18  O   UNL     1      -9.958   4.020 -15.211  0.00  0.00    -0.386 OA
ATOM     19  H   UNL     1     -10.117   4.186 -14.264  0.00  0.00    +0.210 HD
ENDBRANCH   2  18
BRANCH   3  20
ATOM     20  O   UNL     1     -11.158   4.639 -17.617  0.00  0.00    -0.385 OA
ATOM     21  H   UNL     1     -10.984   5.506 -17.207  0.00  0.00    +0.210 HD
ENDBRANCH   3  20
TORSDOF 4
ENDMDL
