MODEL 1
REMARK VINA RESULT:      -3.6      0.000      0.000
REMARK  Name = min_compound6.pdb
REMARK  1 active torsions:
REMARK  status: ('A' for Active; 'I' for Inactive)
REMARK    1  A    between atoms: _1  and  _8
REMARK                            x       y       z     vdW  Elec       q    Type
REMARK                         _______ _______ _______ _____ _____    ______ ____
ROOT
ATOM      1  C   UNL     1     -10.203   0.053 -15.995  0.00  0.00    +0.208 C 
ATOM      2  S   UNL     1     -11.761  -0.278 -16.665  0.00  0.00    -0.048 S 
ATOM      3  S   UNL     1     -12.368   1.676 -16.675  0.00  0.00    -0.031 S 
ATOM      4  C   UNL     1     -10.890   2.329 -15.998  0.00  0.00    +0.119 C 
ATOM      5  S   UNL     1     -10.608   3.936 -15.690  0.00  0.00    -0.027 S 
ATOM      6  N   UNL     1      -9.960   1.360 -15.739  0.00  0.00    -0.308 N 
ATOM      7  H   UNL     1      -9.063   1.607 -15.347  0.00  0.00    +0.149 HD
ENDROOT
BRANCH   1   8
ATOM      8  N   UNL     1      -9.321  -0.842 -15.746  0.00  0.00    -0.304 NA
ATOM      9  H   UNL     1      -8.680  -0.925 -16.535  0.00  0.00    +0.121 HD
ATOM     10  H   UNL     1      -8.806  -0.553 -14.906  0.00  0.00    +0.121 HD
ENDBRANCH   1   8
TORSDOF 1
ENDMDL
MODEL 2
REMARK VINA RESULT:      -3.6      1.584      3.234
REMARK  Name = min_compound6.pdb
REMARK  1 active torsions:
REMARK  status: ('A' for Active; 'I' for Inactive)
REMARK    1  A    between atoms: _1  and  _8
REMARK                            x       y       z     vdW  Elec       q    Type
REMARK                         _______ _______ _______ _____ _____    ______ ____
ROOT
ATOM      1  C   UNL     1     -10.630   2.940 -15.956  0.00  0.00    +0.208 C 
ATOM      2  S   UNL     1     -11.717   2.937 -17.300  0.00  0.00    -0.048 S 
ATOM      3  S   UNL     1     -11.608   0.917 -17.610  0.00  0.00    -0.031 S 
ATOM      4  C   UNL     1     -10.490   0.592 -16.300  0.00  0.00    +0.119 C 
ATOM      5  S   UNL     1      -9.898  -0.906 -15.899  0.00  0.00    -0.027 S 
ATOM      6  N   UNL     1     -10.140   1.724 -15.618  0.00  0.00    -0.308 N 
ATOM      7  H   UNL     1      -9.500   1.672 -14.839  0.00  0.00    +0.149 HD
ENDROOT
BRANCH   1   8
ATOM      8  N   UNL     1     -10.292   3.991 -15.306  0.00  0.00    -0.304 NA
ATOM      9  H   UNL     1     -10.582   3.904 -14.332  0.00  0.00    +0.121 HD
ATOM     10  H   UNL     1      -9.270   4.081 -15.360  0.00  0.00    +0.121 HD
ENDBRANCH   1   8
TORSDOF 1
ENDMDL
MODEL 3
REMARK VINA RESULT:      -3.5      2.638      3.650
REMARK  Name = min_compound6.pdb
REMARK  1 active torsions:
REMARK  status: ('A' for Active; 'I' for Inactive)
REMARK    1  A    between atoms: _1  and  _8
REMARK                            x       y       z     vdW  Elec       q    Type
REMARK                         _______ _______ _______ _____ _____    ______ ____
ROOT
ATOM      1  C   UNL     1     -12.300   1.579 -18.408  0.00  0.00    +0.208 C 
ATOM      2  S   UNL     1     -12.387   2.889 -17.284  0.00  0.00    -0.048 S 
ATOM      3  S   UNL     1     -11.181   2.005 -15.887  0.00  0.00    -0.031 S 
ATOM      4  C   UNL     1     -10.897   0.534 -16.797  0.00  0.00    +0.119 C 
ATOM      5  S   UNL     1      -9.961  -0.739 -16.288  0.00  0.00    -0.027 S 
ATOM      6  N   UNL     1     -11.540   0.534 -18.004  0.00  0.00    -0.308 N 
ATOM      7  H   UNL     1     -11.456  -0.258 -18.625  0.00  0.00    +0.149 HD
ENDROOT
BRANCH   1   8
ATOM      8  N   UNL     1     -12.895   1.562 -19.542  0.00  0.00    -0.304 NA
ATOM      9  H   UNL     1     -13.906   1.600 -19.403  0.00  0.00    +0.121 HD
ATOM     10  H   UNL     1     -12.584   2.384 -20.074  0.00  0.00    +0.121 HD
ENDBRANCH   1   8
TORSDOF 1
ENDMDL
MODEL 4
REMARK VINA RESULT:      -3.5     12.886     13.043
REMARK  Name = min_compound6.pdb
REMARK  1 active torsions:
REMARK  status: ('A' for Active; 'I' for Inactive)
REMARK    1  A    between atoms: _1  and  _8
REMARK                            x       y       z     vdW  Elec       q    Type
REMARK                         _______ _______ _______ _____ _____    ______ ____
ROOT
ATOM      1  C   UNL     1     -14.649  -1.249  -5.380  0.00  0.00    +0.208 C 
ATOM      2  S   UNL     1     -14.048   0.366  -5.245  0.00  0.00    -0.048 S 
ATOM      3  S   UNL     1     -14.018   0.374  -3.199  0.00  0.00    -0.031 S 
ATOM      4  C   UNL     1     -14.621  -1.260  -3.003  0.00  0.00    +0.119 C 
ATOM      5  S   UNL     1     -14.882  -2.015  -1.546  0.00  0.00    -0.027 S 
ATOM      6  N   UNL     1     -14.865  -1.875  -4.199  0.00  0.00    -0.308 N 
ATOM      7  H   UNL     1     -15.216  -2.821  -4.223  0.00  0.00    +0.149 HD
ENDROOT
BRANCH   1   8
ATOM      8  N   UNL     1     -14.882  -1.839  -6.492  0.00  0.00    -0.304 NA
ATOM      9  H   UNL     1     -14.510  -2.789  -6.466  0.00  0.00    +0.121 HD
ATOM     10  H   UNL     1     -15.901  -1.868  -6.627  0.00  0.00    +0.121 HD
ENDBRANCH   1   8
TORSDOF 1
ENDMDL
MODEL 5
REMARK VINA RESULT:      -3.4      2.411      2.470
REMARK  Name = min_compound6.pdb
REMARK  1 active torsions:
REMARK  status: ('A' for Active; 'I' for Inactive)
REMARK    1  A    between atoms: _1  and  _8
REMARK                            x       y       z     vdW  Elec       q    Type
REMARK                         _______ _______ _______ _____ _____    ______ ____
ROOT
ATOM      1  C   UNL     1     -12.180  -0.313 -16.519  0.00  0.00    +0.208 C 
ATOM      2  S   UNL     1     -10.495  -0.628 -16.734  0.00  0.00    -0.048 S 
ATOM      3  S   UNL     1     -10.038   1.268 -17.354  0.00  0.00    -0.031 S 
ATOM      4  C   UNL     1     -11.670   1.895 -17.237  0.00  0.00    +0.119 C 
ATOM      5  S   UNL     1     -12.124   3.452 -17.596  0.00  0.00    -0.027 S 
ATOM      6  N   UNL     1     -12.563   0.953 -16.809  0.00  0.00    -0.308 N 
ATOM      7  H   UNL     1     -13.539   1.189 -16.699  0.00  0.00    +0.149 HD
ENDROOT
BRANCH   1   8
ATOM      8  N   UNL     1     -13.030  -1.184 -16.119  0.00  0.00    -0.304 NA
ATOM      9  H   UNL     1     -12.651  -1.697 -15.323  0.00  0.00    +0.121 HD
ATOM     10  H   UNL     1     -13.885  -0.686 -15.840  0.00  0.00    +0.121 HD
ENDBRANCH   1   8
TORSDOF 1
ENDMDL
MODEL 6
REMARK VINA RESULT:      -3.4     10.777     10.932
REMARK  Name = min_compound6.pdb
REMARK  1 active torsions:
REMARK  status: ('A' for Active; 'I' for Inactive)
REMARK    1  A    between atoms: _1  and  _8
REMARK                            x       y       z     vdW  Elec       q    Type
REMARK                         _______ _______ _______ _____ _____    ______ ____
ROOT
ATOM      1  C   UNL     1     -15.164  -0.921  -6.516  0.00  0.00    +0.208 C 
ATOM      2  S   UNL     1     -14.417   0.599  -6.860  0.00  0.00    -0.048 S 
ATOM      3  S   UNL     1     -16.134   1.497  -7.516  0.00  0.00    -0.031 S 
ATOM      4  C   UNL     1     -17.171   0.104  -7.275  0.00  0.00    +0.119 C 
ATOM      5  S   UNL     1     -18.799   0.056  -7.600  0.00  0.00    -0.027 S 
ATOM      6  N   UNL     1     -16.492  -0.973  -6.777  0.00  0.00    -0.308 N 
ATOM      7  H   UNL     1     -16.976  -1.840  -6.593  0.00  0.00    +0.149 HD
ENDROOT
BRANCH   1   8
ATOM      8  N   UNL     1     -14.543  -1.939  -6.050  0.00  0.00    -0.304 NA
ATOM      9  H   UNL     1     -14.240  -2.541  -6.816  0.00  0.00    +0.121 HD
ATOM     10  H   UNL     1     -13.726  -1.599  -5.528  0.00  0.00    +0.121 HD
ENDBRANCH   1   8
TORSDOF 1
ENDMDL
MODEL 7
REMARK VINA RESULT:      -3.3      2.170      2.590
REMARK  Name = min_compound6.pdb
REMARK  1 active torsions:
REMARK  status: ('A' for Active; 'I' for Inactive)
REMARK    1  A    between atoms: _1  and  _8
REMARK                            x       y       z     vdW  Elec       q    Type
REMARK                         _______ _______ _______ _____ _____    ______ ____
ROOT
ATOM      1  C   UNL     1     -10.599   0.089 -17.346  0.00  0.00    +0.208 C 
ATOM      2  S   UNL     1     -10.400   1.018 -15.902  0.00  0.00    -0.048 S 
ATOM      3  S   UNL     1     -11.769   2.448 -16.421  0.00  0.00    -0.031 S 
ATOM      4  C   UNL     1     -12.192   1.740 -17.968  0.00  0.00    +0.119 C 
ATOM      5  S   UNL     1     -13.302   2.365 -19.034  0.00  0.00    -0.027 S 
ATOM      6  N   UNL     1     -11.501   0.589 -18.223  0.00  0.00    -0.308 N 
ATOM      7  H   UNL     1     -11.654   0.083 -19.083  0.00  0.00    +0.149 HD
ENDROOT
BRANCH   1   8
ATOM      8  N   UNL     1      -9.959  -0.991 -17.600  0.00  0.00    -0.304 NA
ATOM      9  H   UNL     1     -10.412  -1.779 -17.136  0.00  0.00    +0.121 HD
ATOM     10  H   UNL     1      -9.970  -1.132 -18.618  0.00  0.00    +0.121 HD
ENDBRANCH   1   8
TORSDOF 1
ENDMDL
MODEL 8
REMARK VINA RESULT:      -3.3     12.208     12.208
REMARK  Name = min_compound6.pdb
REMARK  1 active torsions:
REMARK  status: ('A' for Active; 'I' for Inactive)
REMARK    1  A    between atoms: _1  and  _8
REMARK                            x       y       z     vdW  Elec       q    Type
REMARK                         _______ _______ _______ _____ _____    ______ ____
ROOT
ATOM      1  C   UNL     1     -14.968  -0.861  -5.399  0.00  0.00    +0.208 C 
ATOM      2  S   UNL     1     -16.621  -0.666  -4.932  0.00  0.00    -0.048 S 
ATOM      3  S   UNL     1     -16.307   1.070  -3.895  0.00  0.00    -0.031 S 
ATOM      4  C   UNL     1     -14.583   1.155  -4.200  0.00  0.00    +0.119 C 
ATOM      5  S   UNL     1     -13.573   2.353  -3.649  0.00  0.00    -0.027 S 
ATOM      6  N   UNL     1     -14.134   0.109  -4.957  0.00  0.00    -0.308 N 
ATOM      7  H   UNL     1     -13.157   0.042  -5.203  0.00  0.00    +0.149 HD
ENDROOT
BRANCH   1   8
ATOM      8  N   UNL     1     -14.531  -1.834  -6.108  0.00  0.00    -0.304 NA
ATOM      9  H   UNL     1     -14.709  -2.718  -5.630  0.00  0.00    +0.121 HD
ATOM     10  H   UNL     1     -15.026  -1.817  -7.008  0.00  0.00    +0.121 HD
ENDBRANCH   1   8
TORSDOF 1
ENDMDL
MODEL 9
REMARK VINA RESULT:      -3.2     10.916     10.954
REMARK  Name = min_compound6.pdb
REMARK  1 active torsions:
REMARK  status: ('A' for Active; 'I' for Inactive)
REMARK    1  A    between atoms: _1  and  _8
REMARK                            x       y       z     vdW  Elec       q    Type
REMARK                         _______ _______ _______ _____ _____    ______ ____
ROOT
ATOM      1  C   UNL     1     -15.109  -0.667  -6.096  0.00  0.00    +0.208 C 
ATOM      2  S   UNL     1     -15.488   0.097  -4.593  0.00  0.00    -0.048 S 
ATOM      3  S   UNL     1     -16.185   1.823  -5.442  0.00  0.00    -0.031 S 
ATOM      4  C   UNL     1     -15.915   1.330  -7.102  0.00  0.00    +0.119 C 
ATOM      5  S   UNL     1     -16.254   2.254  -8.440  0.00  0.00    -0.027 S 
ATOM      6  N   UNL     1     -15.381   0.075  -7.195  0.00  0.00    -0.308 N 
ATOM      7  H   UNL     1     -15.178  -0.326  -8.099  0.00  0.00    +0.149 HD
ENDROOT
BRANCH   1   8
ATOM      8  N   UNL     1     -14.610  -1.842  -6.201  0.00  0.00    -0.304 NA
ATOM      9  H   UNL     1     -14.433  -2.227  -5.273  0.00  0.00    +0.121 HD
ATOM     10  H   UNL     1     -15.288  -2.430  -6.700  0.00  0.00    +0.121 HD
ENDBRANCH   1   8
TORSDOF 1
ENDMDL
