MODEL 1
REMARK VINA RESULT:      -7.5      0.000      0.000
REMARK  Name = min_compound961.pdb
REMARK  4 active torsions:
REMARK  status: ('A' for Active; 'I' for Inactive)
REMARK    1  A    between atoms: _10  and  _12
REMARK    2  A    between atoms: _11  and  _13
REMARK    3  A    between atoms: _13  and  _16
REMARK    4  A    between atoms: _18  and  _20
REMARK                            x       y       z     vdW  Elec       q    Type
REMARK                         _______ _______ _______ _____ _____    ______ ____
ROOT
ATOM      1  C   UNL     1     -13.382  -5.750  -1.252  0.00  0.00    +0.002 A 
ATOM      2  C   UNL     1     -14.561  -6.393  -1.299  0.00  0.00    +0.001 A 
ATOM      3  C   UNL     1     -15.750  -5.646  -1.676  0.00  0.00    +0.016 A 
ATOM      4  C   UNL     1     -15.709  -4.227  -2.022  0.00  0.00    +0.030 A 
ATOM      5  S   UNL     1     -17.178  -3.451  -2.478  0.00  0.00    -0.100 S 
ATOM      6  C   UNL     1     -16.566  -1.973  -3.320  0.00  0.00    +0.167 C 
ATOM      7  C   UNL     1     -15.345  -1.460  -2.944  0.00  0.00    +0.130 C 
ATOM      8  N   UNL     1     -14.368  -2.237  -2.276  0.00  0.00    -0.334 N 
ATOM      9  H   UNL     1     -13.506  -2.123  -2.792  0.00  0.00    +0.147 HD
ATOM     10  C   UNL     1     -14.533  -3.571  -1.965  0.00  0.00    +0.041 A 
ATOM     11  C   UNL     1     -13.344  -4.333  -1.572  0.00  0.00    +0.024 A 
ENDROOT
BRANCH   7  12
ATOM     12  C   UNL     1     -14.887  -0.019  -3.179  0.00  0.00    -0.019 A 
ATOM     13  C   UNL     1     -13.538   0.374  -3.138  0.00  0.00    +0.006 A 
ATOM     14  C   UNL     1     -13.106   1.683  -3.391  0.00  0.00    +0.007 A 
ATOM     15  C   UNL     1     -14.020   2.657  -3.758  0.00  0.00    +0.084 A 
ATOM     16  C   UNL     1     -15.362   2.294  -3.873  0.00  0.00    +0.273 A 
ATOM     17  C   UNL     1     -15.791   0.984  -3.595  0.00  0.00    +0.089 A 
BRANCH  16  18
ATOM     18  N   UNL     1     -16.339   3.293  -4.318  0.00  0.00    +0.080 N 
ATOM     19  O   UNL     1     -17.244   2.936  -5.088  0.00  0.00    +0.041 OA
ATOM     20  O   UNL     1     -16.207   4.460  -3.910  0.00  0.00    -0.576 OA
ENDBRANCH  16  18
ENDBRANCH   7  12
BRANCH   6  21
ATOM     21  N   UNL     1     -17.577  -1.624  -4.170  0.00  0.00    -0.189 NA
ATOM     22  H   UNL     1     -17.165  -1.365  -5.067  0.00  0.00    +0.155 HD
BRANCH  21  23
ATOM     23  O   UNL     1     -18.514  -2.637  -4.396  0.00  0.00    -0.314 OA
ATOM     24  H   UNL     1     -18.061  -3.494  -4.437  0.00  0.00    +0.236 HD
ENDBRANCH  21  23
ENDBRANCH   6  21
TORSDOF 4
ENDMDL
MODEL 2
REMARK VINA RESULT:      -7.3      2.866      3.713
REMARK  Name = min_compound961.pdb
REMARK  4 active torsions:
REMARK  status: ('A' for Active; 'I' for Inactive)
REMARK    1  A    between atoms: _10  and  _12
REMARK    2  A    between atoms: _11  and  _13
REMARK    3  A    between atoms: _13  and  _16
REMARK    4  A    between atoms: _18  and  _20
REMARK                            x       y       z     vdW  Elec       q    Type
REMARK                         _______ _______ _______ _____ _____    ______ ____
ROOT
ATOM      1  C   UNL     1     -18.099  -6.174  -1.745  0.00  0.00    +0.002 A 
ATOM      2  C   UNL     1     -17.256  -6.971  -1.066  0.00  0.00    +0.001 A 
ATOM      3  C   UNL     1     -15.864  -6.574  -0.944  0.00  0.00    +0.016 A 
ATOM      4  C   UNL     1     -15.348  -5.332  -1.517  0.00  0.00    +0.030 A 
ATOM      5  S   UNL     1     -13.684  -4.952  -1.287  0.00  0.00    -0.100 S 
ATOM      6  C   UNL     1     -13.661  -3.178  -1.637  0.00  0.00    +0.167 C 
ATOM      7  C   UNL     1     -14.600  -2.666  -2.504  0.00  0.00    +0.130 C 
ATOM      8  N   UNL     1     -15.815  -3.335  -2.788  0.00  0.00    -0.334 N 
ATOM      9  H   UNL     1     -16.555  -2.660  -2.647  0.00  0.00    +0.147 HD
ATOM     10  C   UNL     1     -16.183  -4.533  -2.210  0.00  0.00    +0.041 A 
ATOM     11  C   UNL     1     -17.582  -4.950  -2.336  0.00  0.00    +0.024 A 
ENDROOT
BRANCH   7  12
ATOM     12  C   UNL     1     -14.463  -1.349  -3.270  0.00  0.00    -0.019 A 
ATOM     13  C   UNL     1     -13.897  -0.191  -2.710  0.00  0.00    +0.006 A 
ATOM     14  C   UNL     1     -13.731   1.009  -3.416  0.00  0.00    +0.007 A 
ATOM     15  C   UNL     1     -14.081   1.080  -4.754  0.00  0.00    +0.084 A 
ATOM     16  C   UNL     1     -14.588  -0.066  -5.367  0.00  0.00    +0.273 A 
ATOM     17  C   UNL     1     -14.773  -1.259  -4.646  0.00  0.00    +0.089 A 
BRANCH  16  18
ATOM     18  N   UNL     1     -14.910  -0.031  -6.797  0.00  0.00    +0.080 N 
ATOM     19  O   UNL     1     -14.493   0.920  -7.476  0.00  0.00    +0.041 OA
ATOM     20  O   UNL     1     -15.598  -0.956  -7.263  0.00  0.00    -0.576 OA
ENDBRANCH  16  18
ENDBRANCH   7  12
BRANCH   6  21
ATOM     21  N   UNL     1     -12.574  -2.711  -0.953  0.00  0.00    -0.189 NA
ATOM     22  H   UNL     1     -12.887  -2.395  -0.034  0.00  0.00    +0.155 HD
BRANCH  21  23
ATOM     23  O   UNL     1     -11.561  -3.656  -0.768  0.00  0.00    -0.314 OA
ATOM     24  H   UNL     1     -11.935  -4.460  -0.374  0.00  0.00    +0.236 HD
ENDBRANCH  21  23
ENDBRANCH   6  21
TORSDOF 4
ENDMDL
MODEL 3
REMARK VINA RESULT:      -7.3      2.823      6.880
REMARK  Name = min_compound961.pdb
REMARK  4 active torsions:
REMARK  status: ('A' for Active; 'I' for Inactive)
REMARK    1  A    between atoms: _10  and  _12
REMARK    2  A    between atoms: _11  and  _13
REMARK    3  A    between atoms: _13  and  _16
REMARK    4  A    between atoms: _18  and  _20
REMARK                            x       y       z     vdW  Elec       q    Type
REMARK                         _______ _______ _______ _____ _____    ______ ____
ROOT
ATOM      1  C   UNL     1     -13.624   2.305  -3.494  0.00  0.00    +0.002 A 
ATOM      2  C   UNL     1     -14.841   2.686  -3.916  0.00  0.00    +0.001 A 
ATOM      3  C   UNL     1     -15.892   1.687  -4.015  0.00  0.00    +0.016 A 
ATOM      4  C   UNL     1     -15.681   0.286  -3.656  0.00  0.00    +0.030 A 
ATOM      5  S   UNL     1     -17.008  -0.804  -3.789  0.00  0.00    -0.100 S 
ATOM      6  C   UNL     1     -16.458  -2.178  -2.751  0.00  0.00    +0.167 C 
ATOM      7  C   UNL     1     -15.107  -2.402  -2.617  0.00  0.00    +0.130 C 
ATOM      8  N   UNL     1     -14.142  -1.398  -2.870  0.00  0.00    -0.334 N 
ATOM      9  H   UNL     1     -13.538  -1.367  -2.059  0.00  0.00    +0.147 HD
ATOM     10  C   UNL     1     -14.460  -0.108  -3.243  0.00  0.00    +0.041 A 
ATOM     11  C   UNL     1     -13.405   0.907  -3.160  0.00  0.00    +0.024 A 
ENDROOT
BRANCH   7  12
ATOM     12  C   UNL     1     -14.473  -3.731  -2.199  0.00  0.00    -0.019 A 
ATOM     13  C   UNL     1     -13.402  -3.819  -1.294  0.00  0.00    +0.006 A 
ATOM     14  C   UNL     1     -12.841  -5.033  -0.874  0.00  0.00    +0.007 A 
ATOM     15  C   UNL     1     -13.379  -6.233  -1.310  0.00  0.00    +0.084 A 
ATOM     16  C   UNL     1     -14.485  -6.192  -2.160  0.00  0.00    +0.273 A 
ATOM     17  C   UNL     1     -15.027  -4.970  -2.594  0.00  0.00    +0.089 A 
BRANCH  16  18
ATOM     18  N   UNL     1     -15.108  -7.449  -2.586  0.00  0.00    +0.080 N 
ATOM     19  O   UNL     1     -14.542  -8.125  -3.459  0.00  0.00    +0.041 OA
ATOM     20  O   UNL     1     -16.186  -7.775  -2.058  0.00  0.00    -0.576 OA
ENDBRANCH  16  18
ENDBRANCH   7  12
BRANCH   6  21
ATOM     21  N   UNL     1     -17.615  -2.784  -2.351  0.00  0.00    -0.189 NA
ATOM     22  H   UNL     1     -18.253  -2.063  -2.013  0.00  0.00    +0.155 HD
BRANCH  21  23
ATOM     23  O   UNL     1     -18.265  -3.507  -3.356  0.00  0.00    -0.314 OA
ATOM     24  H   UNL     1     -18.442  -2.924  -4.111  0.00  0.00    +0.236 HD
ENDBRANCH  21  23
ENDBRANCH   6  21
TORSDOF 4
ENDMDL
MODEL 4
REMARK VINA RESULT:      -7.1     12.641     14.626
REMARK  Name = min_compound961.pdb
REMARK  4 active torsions:
REMARK  status: ('A' for Active; 'I' for Inactive)
REMARK    1  A    between atoms: _10  and  _12
REMARK    2  A    between atoms: _11  and  _13
REMARK    3  A    between atoms: _13  and  _16
REMARK    4  A    between atoms: _18  and  _20
REMARK                            x       y       z     vdW  Elec       q    Type
REMARK                         _______ _______ _______ _____ _____    ______ ____
ROOT
ATOM      1  C   UNL     1     -18.116   3.436 -12.719  0.00  0.00    +0.002 A 
ATOM      2  C   UNL     1     -18.616   4.651 -13.000  0.00  0.00    +0.001 A 
ATOM      3  C   UNL     1     -17.842   5.549 -13.841  0.00  0.00    +0.016 A 
ATOM      4  C   UNL     1     -16.549   5.174 -14.409  0.00  0.00    +0.030 A 
ATOM      5  S   UNL     1     -15.734   6.310 -15.415  0.00  0.00    -0.100 S 
ATOM      6  C   UNL     1     -14.557   5.251 -16.287  0.00  0.00    +0.167 C 
ATOM      7  C   UNL     1     -14.115   4.106 -15.664  0.00  0.00    +0.130 C 
ATOM      8  N   UNL     1     -14.829   3.493 -14.606  0.00  0.00    -0.334 N 
ATOM      9  H   UNL     1     -14.930   2.517 -14.853  0.00  0.00    +0.147 HD
ATOM     10  C   UNL     1     -16.034   3.962 -14.123  0.00  0.00    +0.041 A 
ATOM     11  C   UNL     1     -16.818   3.071 -13.263  0.00  0.00    +0.024 A 
ENDROOT
BRANCH   7  12
ATOM     12  C   UNL     1     -12.823   3.362 -16.006  0.00  0.00    -0.019 A 
ATOM     13  C   UNL     1     -11.552   3.959 -15.938  0.00  0.00    +0.006 A 
ATOM     14  C   UNL     1     -10.360   3.274 -16.212  0.00  0.00    +0.007 A 
ATOM     15  C   UNL     1     -10.390   1.922 -16.514  0.00  0.00    +0.084 A 
ATOM     16  C   UNL     1     -11.626   1.275 -16.530  0.00  0.00    +0.273 A 
ATOM     17  C   UNL     1     -12.819   1.975 -16.277  0.00  0.00    +0.089 A 
BRANCH  16  18
ATOM     18  N   UNL     1     -11.677  -0.167 -16.789  0.00  0.00    +0.080 N 
ATOM     19  O   UNL     1     -10.711  -0.702 -17.356  0.00  0.00    +0.041 OA
ATOM     20  O   UNL     1     -12.695  -0.788 -16.437  0.00  0.00    -0.576 OA
ENDBRANCH  16  18
ENDBRANCH   7  12
BRANCH   6  21
ATOM     21  N   UNL     1     -14.295   5.920 -17.449  0.00  0.00    -0.189 NA
ATOM     22  H   UNL     1     -15.167   6.326 -17.788  0.00  0.00    +0.155 HD
BRANCH  21  23
ATOM     23  O   UNL     1     -13.356   6.948 -17.321  0.00  0.00    -0.314 OA
ATOM     24  H   UNL     1     -12.586   6.755 -17.878  0.00  0.00    +0.236 HD
ENDBRANCH  21  23
ENDBRANCH   6  21
TORSDOF 4
ENDMDL
MODEL 5
REMARK VINA RESULT:      -7.1      2.650      3.421
REMARK  Name = min_compound961.pdb
REMARK  4 active torsions:
REMARK  status: ('A' for Active; 'I' for Inactive)
REMARK    1  A    between atoms: _10  and  _12
REMARK    2  A    between atoms: _11  and  _13
REMARK    3  A    between atoms: _13  and  _16
REMARK    4  A    between atoms: _18  and  _20
REMARK                            x       y       z     vdW  Elec       q    Type
REMARK                         _______ _______ _______ _____ _____    ______ ____
ROOT
ATOM      1  C   UNL     1     -18.915  -5.177  -1.565  0.00  0.00    +0.002 A 
ATOM      2  C   UNL     1     -18.202  -5.950  -0.727  0.00  0.00    +0.001 A 
ATOM      3  C   UNL     1     -16.768  -5.739  -0.632  0.00  0.00    +0.016 A 
ATOM      4  C   UNL     1     -16.073  -4.707  -1.398  0.00  0.00    +0.030 A 
ATOM      5  S   UNL     1     -14.372  -4.531  -1.184  0.00  0.00    -0.100 S 
ATOM      6  C   UNL     1     -14.089  -2.871  -1.842  0.00  0.00    +0.167 C 
ATOM      7  C   UNL     1     -14.937  -2.397  -2.816  0.00  0.00    +0.130 C 
ATOM      8  N   UNL     1     -16.235  -2.926  -3.018  0.00  0.00    -0.334 N 
ATOM      9  H   UNL     1     -16.870  -2.138  -3.023  0.00  0.00    +0.147 HD
ATOM     10  C   UNL     1     -16.777  -3.936  -2.249  0.00  0.00    +0.041 A 
ATOM     11  C   UNL     1     -18.221  -4.166  -2.346  0.00  0.00    +0.024 A 
ENDROOT
BRANCH   7  12
ATOM     12  C   UNL     1     -14.605  -1.272  -3.799  0.00  0.00    -0.019 A 
ATOM     13  C   UNL     1     -14.474  -1.476  -5.183  0.00  0.00    +0.006 A 
ATOM     14  C   UNL     1     -14.209  -0.445  -6.096  0.00  0.00    +0.007 A 
ATOM     15  C   UNL     1     -14.120   0.866  -5.655  0.00  0.00    +0.084 A 
ATOM     16  C   UNL     1     -14.309   1.121  -4.297  0.00  0.00    +0.273 A 
ATOM     17  C   UNL     1     -14.550   0.078  -3.384  0.00  0.00    +0.089 A 
BRANCH  16  18
ATOM     18  N   UNL     1     -14.279   2.506  -3.816  0.00  0.00    +0.080 N 
ATOM     19  O   UNL     1     -15.344   3.141  -3.771  0.00  0.00    +0.041 OA
ATOM     20  O   UNL     1     -13.180   2.986  -3.486  0.00  0.00    -0.576 OA
ENDBRANCH  16  18
ENDBRANCH   7  12
BRANCH   6  21
ATOM     21  N   UNL     1     -12.952  -2.448  -1.215  0.00  0.00    -0.189 NA
ATOM     22  H   UNL     1     -13.221  -1.949  -0.367  0.00  0.00    +0.155 HD
BRANCH  21  23
ATOM     23  O   UNL     1     -12.074  -3.476  -0.859  0.00  0.00    -0.314 OA
ATOM     24  H   UNL     1     -11.301  -3.459  -1.445  0.00  0.00    +0.236 HD
ENDBRANCH  21  23
ENDBRANCH   6  21
TORSDOF 4
ENDMDL
MODEL 6
REMARK VINA RESULT:      -6.9     13.754     15.744
REMARK  Name = min_compound961.pdb
REMARK  4 active torsions:
REMARK  status: ('A' for Active; 'I' for Inactive)
REMARK    1  A    between atoms: _10  and  _12
REMARK    2  A    between atoms: _11  and  _13
REMARK    3  A    between atoms: _13  and  _16
REMARK    4  A    between atoms: _18  and  _20
REMARK                            x       y       z     vdW  Elec       q    Type
REMARK                         _______ _______ _______ _____ _____    ______ ____
ROOT
ATOM      1  C   UNL     1     -15.351   8.843 -17.394  0.00  0.00    +0.002 A 
ATOM      2  C   UNL     1     -16.652   8.607 -17.151  0.00  0.00    +0.001 A 
ATOM      3  C   UNL     1     -17.064   7.261 -16.790  0.00  0.00    +0.016 A 
ATOM      4  C   UNL     1     -16.115   6.157 -16.663  0.00  0.00    +0.030 A 
ATOM      5  S   UNL     1     -16.715   4.609 -16.204  0.00  0.00    -0.100 S 
ATOM      6  C   UNL     1     -15.207   3.782 -15.646  0.00  0.00    +0.167 C 
ATOM      7  C   UNL     1     -14.005   4.165 -16.195  0.00  0.00    +0.130 C 
ATOM      8  N   UNL     1     -13.822   5.422 -16.822  0.00  0.00    -0.334 N 
ATOM      9  H   UNL     1     -13.000   5.836 -16.403  0.00  0.00    +0.147 HD
ATOM     10  C   UNL     1     -14.811   6.380 -16.916  0.00  0.00    +0.041 A 
ATOM     11  C   UNL     1     -14.409   7.739 -17.291  0.00  0.00    +0.024 A 
ENDROOT
BRANCH   7  12
ATOM     12  C   UNL     1     -12.736   3.311 -16.217  0.00  0.00    -0.019 A 
ATOM     13  C   UNL     1     -11.458   3.827 -15.941  0.00  0.00    +0.006 A 
ATOM     14  C   UNL     1     -10.295   3.045 -15.919  0.00  0.00    +0.007 A 
ATOM     15  C   UNL     1     -10.376   1.676 -16.120  0.00  0.00    +0.084 A 
ATOM     16  C   UNL     1     -11.634   1.112 -16.333  0.00  0.00    +0.273 A 
ATOM     17  C   UNL     1     -12.793   1.908 -16.377  0.00  0.00    +0.089 A 
BRANCH  16  18
ATOM     18  N   UNL     1     -11.751  -0.341 -16.488  0.00  0.00    +0.080 N 
ATOM     19  O   UNL     1     -12.873  -0.860 -16.381  0.00  0.00    +0.041 OA
ATOM     20  O   UNL     1     -10.714  -0.990 -16.710  0.00  0.00    -0.576 OA
ENDBRANCH  16  18
ENDBRANCH   7  12
BRANCH   6  21
ATOM     21  N   UNL     1     -15.647   2.827 -14.774  0.00  0.00    -0.189 NA
ATOM     22  H   UNL     1     -16.327   3.257 -14.146  0.00  0.00    +0.155 HD
BRANCH  21  23
ATOM     23  O   UNL     1     -16.253   1.724 -15.385  0.00  0.00    -0.314 OA
ATOM     24  H   UNL     1     -16.234   1.837 -16.348  0.00  0.00    +0.236 HD
ENDBRANCH  21  23
ENDBRANCH   6  21
TORSDOF 4
ENDMDL
MODEL 7
REMARK VINA RESULT:      -6.8     13.909     14.648
REMARK  Name = min_compound961.pdb
REMARK  4 active torsions:
REMARK  status: ('A' for Active; 'I' for Inactive)
REMARK    1  A    between atoms: _10  and  _12
REMARK    2  A    between atoms: _11  and  _13
REMARK    3  A    between atoms: _13  and  _16
REMARK    4  A    between atoms: _18  and  _20
REMARK                            x       y       z     vdW  Elec       q    Type
REMARK                         _______ _______ _______ _____ _____    ______ ____
ROOT
ATOM      1  C   UNL     1     -10.207   1.336 -17.481  0.00  0.00    +0.002 A 
ATOM      2  C   UNL     1     -10.887   0.215 -17.186  0.00  0.00    +0.001 A 
ATOM      3  C   UNL     1     -12.250   0.333 -16.695  0.00  0.00    +0.016 A 
ATOM      4  C   UNL     1     -12.915   1.624 -16.525  0.00  0.00    +0.030 A 
ATOM      5  S   UNL     1     -14.541   1.640 -15.959  0.00  0.00    -0.100 S 
ATOM      6  C   UNL     1     -15.081   3.297 -16.441  0.00  0.00    +0.167 C 
ATOM      7  C   UNL     1     -14.139   4.296 -16.529  0.00  0.00    +0.130 C 
ATOM      8  N   UNL     1     -12.758   4.026 -16.693  0.00  0.00    -0.334 N 
ATOM      9  H   UNL     1     -12.447   4.581 -17.479  0.00  0.00    +0.147 HD
ATOM     10  C   UNL     1     -12.236   2.753 -16.806  0.00  0.00    +0.041 A 
ATOM     11  C   UNL     1     -10.859   2.622 -17.289  0.00  0.00    +0.024 A 
ENDROOT
BRANCH   7  12
ATOM     12  C   UNL     1     -14.437   5.795 -16.455  0.00  0.00    -0.019 A 
ATOM     13  C   UNL     1     -14.177   6.683 -17.513  0.00  0.00    +0.006 A 
ATOM     14  C   UNL     1     -14.484   8.050 -17.469  0.00  0.00    +0.007 A 
ATOM     15  C   UNL     1     -15.127   8.581 -16.363  0.00  0.00    +0.084 A 
ATOM     16  C   UNL     1     -15.461   7.722 -15.316  0.00  0.00    +0.273 A 
ATOM     17  C   UNL     1     -15.129   6.356 -15.358  0.00  0.00    +0.089 A 
BRANCH  16  18
ATOM     18  N   UNL     1     -16.195   8.250 -14.162  0.00  0.00    +0.080 N 
ATOM     19  O   UNL     1     -16.663   9.397 -14.230  0.00  0.00    +0.041 OA
ATOM     20  O   UNL     1     -16.306   7.524 -13.158  0.00  0.00    -0.576 OA
ENDBRANCH  16  18
ENDBRANCH   7  12
BRANCH   6  21
ATOM     21  N   UNL     1     -16.438   3.192 -16.553  0.00  0.00    -0.189 NA
ATOM     22  H   UNL     1     -16.656   2.848 -17.489  0.00  0.00    +0.155 HD
BRANCH  21  23
ATOM     23  O   UNL     1     -17.028   2.330 -15.623  0.00  0.00    -0.314 OA
ATOM     24  H   UNL     1     -17.405   1.565 -16.085  0.00  0.00    +0.236 HD
ENDBRANCH  21  23
ENDBRANCH   6  21
TORSDOF 4
ENDMDL
MODEL 8
REMARK VINA RESULT:      -6.8     12.319     13.992
REMARK  Name = min_compound961.pdb
REMARK  4 active torsions:
REMARK  status: ('A' for Active; 'I' for Inactive)
REMARK    1  A    between atoms: _10  and  _12
REMARK    2  A    between atoms: _11  and  _13
REMARK    3  A    between atoms: _13  and  _16
REMARK    4  A    between atoms: _18  and  _20
REMARK                            x       y       z     vdW  Elec       q    Type
REMARK                         _______ _______ _______ _____ _____    ______ ____
ROOT
ATOM      1  C   UNL     1      -9.996  -0.943 -16.469  0.00  0.00    +0.002 A 
ATOM      2  C   UNL     1      -9.252  -0.268 -17.362  0.00  0.00    +0.001 A 
ATOM      3  C   UNL     1      -9.708   1.039 -17.806  0.00  0.00    +0.016 A 
ATOM      4  C   UNL     1     -10.935   1.655 -17.305  0.00  0.00    +0.030 A 
ATOM      5  S   UNL     1     -11.362   3.220 -17.884  0.00  0.00    -0.100 S 
ATOM      6  C   UNL     1     -12.544   3.765 -16.628  0.00  0.00    +0.167 C 
ATOM      7  C   UNL     1     -13.276   2.813 -15.956  0.00  0.00    +0.130 C 
ATOM      8  N   UNL     1     -12.864   1.461 -15.869  0.00  0.00    -0.334 N 
ATOM      9  H   UNL     1     -12.895   1.213 -14.889  0.00  0.00    +0.147 HD
ATOM     10  C   UNL     1     -11.693   0.981 -16.419  0.00  0.00    +0.041 A 
ATOM     11  C   UNL     1     -11.229  -0.341 -15.988  0.00  0.00    +0.024 A 
ENDROOT
BRANCH   7  12
ATOM     12  C   UNL     1     -14.603   3.069 -15.239  0.00  0.00    -0.019 A 
ATOM     13  C   UNL     1     -15.773   2.338 -15.507  0.00  0.00    +0.006 A 
ATOM     14  C   UNL     1     -16.983   2.538 -14.827  0.00  0.00    +0.007 A 
ATOM     15  C   UNL     1     -17.053   3.456 -13.792  0.00  0.00    +0.084 A 
ATOM     16  C   UNL     1     -15.897   4.157 -13.449  0.00  0.00    +0.273 A 
ATOM     17  C   UNL     1     -14.693   3.968 -14.152  0.00  0.00    +0.089 A 
BRANCH  16  18
ATOM     18  N   UNL     1     -15.932   5.090 -12.319  0.00  0.00    +0.080 N 
ATOM     19  O   UNL     1     -16.847   5.926 -12.269  0.00  0.00    +0.041 OA
ATOM     20  O   UNL     1     -15.032   5.006 -11.465  0.00  0.00    -0.576 OA
ENDBRANCH  16  18
ENDBRANCH   7  12
BRANCH   6  21
ATOM     21  N   UNL     1     -12.490   5.129 -16.682  0.00  0.00    -0.189 NA
ATOM     22  H   UNL     1     -12.670   5.493 -15.746  0.00  0.00    +0.155 HD
BRANCH  21  23
ATOM     23  O   UNL     1     -11.265   5.641 -17.122  0.00  0.00    -0.314 OA
ATOM     24  H   UNL     1     -10.715   4.917 -17.458  0.00  0.00    +0.236 HD
ENDBRANCH  21  23
ENDBRANCH   6  21
TORSDOF 4
ENDMDL
MODEL 9
REMARK VINA RESULT:      -6.7      3.882      7.627
REMARK  Name = min_compound961.pdb
REMARK  4 active torsions:
REMARK  status: ('A' for Active; 'I' for Inactive)
REMARK    1  A    between atoms: _10  and  _12
REMARK    2  A    between atoms: _11  and  _13
REMARK    3  A    between atoms: _13  and  _16
REMARK    4  A    between atoms: _18  and  _20
REMARK                            x       y       z     vdW  Elec       q    Type
REMARK                         _______ _______ _______ _____ _____    ______ ____
ROOT
ATOM      1  C   UNL     1     -17.368   2.953 -10.264  0.00  0.00    +0.002 A 
ATOM      2  C   UNL     1     -18.318   3.868 -10.002  0.00  0.00    +0.001 A 
ATOM      3  C   UNL     1     -18.632   4.173  -8.616  0.00  0.00    +0.016 A 
ATOM      4  C   UNL     1     -17.942   3.537  -7.496  0.00  0.00    +0.030 A 
ATOM      5  S   UNL     1     -18.380   3.996  -5.895  0.00  0.00    -0.100 S 
ATOM      6  C   UNL     1     -16.953   3.421  -4.945  0.00  0.00    +0.167 C 
ATOM      7  C   UNL     1     -16.238   2.345  -5.419  0.00  0.00    +0.130 C 
ATOM      8  N   UNL     1     -16.273   1.948  -6.777  0.00  0.00    -0.334 N 
ATOM      9  H   UNL     1     -15.311   1.868  -7.080  0.00  0.00    +0.147 HD
ATOM     10  C   UNL     1     -16.997   2.610  -7.749  0.00  0.00    +0.041 A 
ATOM     11  C   UNL     1     -16.698   2.302  -9.150  0.00  0.00    +0.024 A 
ENDROOT
BRANCH   7  12
ATOM     12  C   UNL     1     -15.338   1.445  -4.569  0.00  0.00    -0.019 A 
ATOM     13  C   UNL     1     -14.161   1.900  -3.951  0.00  0.00    +0.006 A 
ATOM     14  C   UNL     1     -13.352   1.094  -3.138  0.00  0.00    +0.007 A 
ATOM     15  C   UNL     1     -13.728  -0.211  -2.862  0.00  0.00    +0.084 A 
ATOM     16  C   UNL     1     -14.924  -0.684  -3.403  0.00  0.00    +0.273 A 
ATOM     17  C   UNL     1     -15.718   0.124  -4.237  0.00  0.00    +0.089 A 
BRANCH  16  18
ATOM     18  N   UNL     1     -15.372  -2.041  -3.077  0.00  0.00    +0.080 N 
ATOM     19  O   UNL     1     -16.591  -2.260  -2.998  0.00  0.00    +0.041 OA
ATOM     20  O   UNL     1     -14.505  -2.910  -2.881  0.00  0.00    -0.576 OA
ENDBRANCH  16  18
ENDBRANCH   7  12
BRANCH   6  21
ATOM     21  N   UNL     1     -16.946   4.213  -3.832  0.00  0.00    -0.189 NA
ATOM     22  H   UNL     1     -16.788   3.619  -3.018  0.00  0.00    +0.155 HD
BRANCH  21  23
ATOM     23  O   UNL     1     -15.966   5.211  -3.841  0.00  0.00    -0.314 OA
ATOM     24  H   UNL     1     -15.327   5.043  -3.132  0.00  0.00    +0.236 HD
ENDBRANCH  21  23
ENDBRANCH   6  21
TORSDOF 4
ENDMDL
