MODEL 1
REMARK VINA RESULT:      -7.3      0.000      0.000
REMARK  Name = min_compound975.pdb
REMARK  5 active torsions:
REMARK  status: ('A' for Active; 'I' for Inactive)
REMARK    1  A    between atoms: _2  and  _15
REMARK    2  A    between atoms: _5  and  _13
REMARK    3  A    between atoms: _7  and  _19
REMARK    4  A    between atoms: _8  and  _18
REMARK    5  A    between atoms: _15  and  _17
REMARK                            x       y       z     vdW  Elec       q    Type
REMARK                         _______ _______ _______ _____ _____    ______ ____
ROOT
ATOM      1  C   UNL     1     -12.920   2.611 -17.616  0.00  0.00    +0.249 C 
ATOM      2  N   UNL     1     -14.075   3.195 -17.154  0.00  0.00    -0.281 N 
ATOM      3  H   UNL     1     -14.519   3.687 -17.924  0.00  0.00    +0.155 HD
ATOM      4  O   UNL     1     -12.582   2.885 -18.771  0.00  0.00    -0.270 OA
ENDROOT
BRANCH   1   7
ATOM      5  C   UNL     1     -10.165   0.992 -15.568  0.00  0.00    +0.016 A 
ATOM      6  C   UNL     1     -10.961   1.954 -16.206  0.00  0.00    +0.071 A 
ATOM      7  C   UNL     1     -12.137   1.591 -16.879  0.00  0.00    +0.051 A 
ATOM      8  C   UNL     1     -12.454   0.229 -16.978  0.00  0.00    +0.014 A 
ATOM      9  C   UNL     1     -11.672  -0.731 -16.325  0.00  0.00    +0.001 A 
ATOM     10  C   UNL     1     -10.534  -0.350 -15.615  0.00  0.00    +0.001 A 
BRANCH   6  11
ATOM     11  C   UNL     1     -10.512   3.349 -16.151  0.00  0.00    +0.338 C 
ATOM     12  O   UNL     1     -10.662   4.116 -15.222  0.00  0.00    -0.245 OA
BRANCH  11  13
ATOM     13  O   UNL     1      -9.905   3.678 -17.304  0.00  0.00    -0.477 OA
ATOM     14  H   UNL     1     -10.591   4.156 -17.814  0.00  0.00    +0.295 HD
ENDBRANCH  11  13
ENDBRANCH   6  11
ENDBRANCH   1   7
BRANCH   2  15
ATOM     15  C   UNL     1     -14.745   3.276 -15.922  0.00  0.00    +0.040 A 
ATOM     16  C   UNL     1     -15.645   2.230 -15.651  0.00  0.00    +0.024 A 
ATOM     17  C   UNL     1     -16.342   2.163 -14.442  0.00  0.00    +0.008 A 
ATOM     18  C   UNL     1     -16.157   3.154 -13.486  0.00  0.00    +0.084 A 
ATOM     19  C   UNL     1     -15.295   4.221 -13.766  0.00  0.00    +0.275 A 
ATOM     20  C   UNL     1     -14.602   4.300 -14.989  0.00  0.00    +0.107 A 
BRANCH  19  21
ATOM     21  N   UNL     1     -15.098   5.262 -12.751  0.00  0.00    +0.080 N 
ATOM     22  O   UNL     1     -14.621   4.921 -11.660  0.00  0.00    +0.041 OA
ATOM     23  O   UNL     1     -15.438   6.420 -13.037  0.00  0.00    -0.576 OA
ENDBRANCH  19  21
ENDBRANCH   2  15
TORSDOF 5
ENDMDL
MODEL 2
REMARK VINA RESULT:      -7.0     11.419     13.724
REMARK  Name = min_compound975.pdb
REMARK  5 active torsions:
REMARK  status: ('A' for Active; 'I' for Inactive)
REMARK    1  A    between atoms: _2  and  _15
REMARK    2  A    between atoms: _5  and  _13
REMARK    3  A    between atoms: _7  and  _19
REMARK    4  A    between atoms: _8  and  _18
REMARK    5  A    between atoms: _15  and  _17
REMARK                            x       y       z     vdW  Elec       q    Type
REMARK                         _______ _______ _______ _____ _____    ______ ____
ROOT
ATOM      1  C   UNL     1     -17.176  -0.694  -4.447  0.00  0.00    +0.249 C 
ATOM      2  N   UNL     1     -17.174  -1.809  -3.643  0.00  0.00    -0.281 N 
ATOM      3  H   UNL     1     -17.964  -2.394  -3.900  0.00  0.00    +0.155 HD
ATOM      4  O   UNL     1     -18.147  -0.548  -5.193  0.00  0.00    -0.270 OA
ENDROOT
BRANCH   1   7
ATOM      5  C   UNL     1     -13.977   0.943  -5.670  0.00  0.00    +0.016 A 
ATOM      6  C   UNL     1     -15.093   0.099  -5.585  0.00  0.00    +0.071 A 
ATOM      7  C   UNL     1     -16.047   0.259  -4.568  0.00  0.00    +0.051 A 
ATOM      8  C   UNL     1     -15.813   1.229  -3.583  0.00  0.00    +0.014 A 
ATOM      9  C   UNL     1     -14.710   2.086  -3.677  0.00  0.00    +0.001 A 
ATOM     10  C   UNL     1     -13.798   1.948  -4.722  0.00  0.00    +0.001 A 
BRANCH   6  11
ATOM     11  C   UNL     1     -15.220  -0.962  -6.589  0.00  0.00    +0.338 C 
ATOM     12  O   UNL     1     -15.858  -0.902  -7.620  0.00  0.00    -0.245 OA
BRANCH  11  13
ATOM     13  O   UNL     1     -14.523  -2.043  -6.201  0.00  0.00    -0.477 OA
ATOM     14  H   UNL     1     -13.588  -1.804  -6.368  0.00  0.00    +0.295 HD
ENDBRANCH  11  13
ENDBRANCH   6  11
ENDBRANCH   1   7
BRANCH   2  15
ATOM     15  C   UNL     1     -16.382  -2.297  -2.590  0.00  0.00    +0.040 A 
ATOM     16  C   UNL     1     -16.760  -1.876  -1.302  0.00  0.00    +0.024 A 
ATOM     17  C   UNL     1     -16.088  -2.325  -0.162  0.00  0.00    +0.008 A 
ATOM     18  C   UNL     1     -15.014  -3.197  -0.296  0.00  0.00    +0.084 A 
ATOM     19  C   UNL     1     -14.606  -3.586  -1.577  0.00  0.00    +0.275 A 
ATOM     20  C   UNL     1     -15.272  -3.125  -2.729  0.00  0.00    +0.107 A 
BRANCH  19  21
ATOM     21  N   UNL     1     -13.476  -4.512  -1.714  0.00  0.00    +0.080 N 
ATOM     22  O   UNL     1     -13.672  -5.577  -2.316  0.00  0.00    +0.041 OA
ATOM     23  O   UNL     1     -12.395  -4.184  -1.202  0.00  0.00    -0.576 OA
ENDBRANCH  19  21
ENDBRANCH   2  15
TORSDOF 5
ENDMDL
MODEL 3
REMARK VINA RESULT:      -7.0      7.710     10.127
REMARK  Name = min_compound975.pdb
REMARK  5 active torsions:
REMARK  status: ('A' for Active; 'I' for Inactive)
REMARK    1  A    between atoms: _2  and  _15
REMARK    2  A    between atoms: _5  and  _13
REMARK    3  A    between atoms: _7  and  _19
REMARK    4  A    between atoms: _8  and  _18
REMARK    5  A    between atoms: _15  and  _17
REMARK                            x       y       z     vdW  Elec       q    Type
REMARK                         _______ _______ _______ _____ _____    ______ ____
ROOT
ATOM      1  C   UNL     1     -17.376   1.019  -5.883  0.00  0.00    +0.249 C 
ATOM      2  N   UNL     1     -17.907   1.848  -6.842  0.00  0.00    -0.281 N 
ATOM      3  H   UNL     1     -18.902   1.658  -6.919  0.00  0.00    +0.155 HD
ATOM      4  O   UNL     1     -18.125   0.157  -5.416  0.00  0.00    -0.270 OA
ENDROOT
BRANCH   1   7
ATOM      5  C   UNL     1     -13.738   0.362  -5.024  0.00  0.00    +0.016 A 
ATOM      6  C   UNL     1     -14.998   0.282  -5.632  0.00  0.00    +0.071 A 
ATOM      7  C   UNL     1     -16.027   1.172  -5.289  0.00  0.00    +0.051 A 
ATOM      8  C   UNL     1     -15.794   2.091  -4.256  0.00  0.00    +0.014 A 
ATOM      9  C   UNL     1     -14.530   2.187  -3.662  0.00  0.00    +0.001 A 
ATOM     10  C   UNL     1     -13.502   1.329  -4.050  0.00  0.00    +0.001 A 
BRANCH   6  11
ATOM     11  C   UNL     1     -15.204  -0.772  -6.631  0.00  0.00    +0.338 C 
ATOM     12  O   UNL     1     -15.791  -0.656  -7.687  0.00  0.00    -0.245 OA
BRANCH  11  13
ATOM     13  O   UNL     1     -14.648  -1.919  -6.204  0.00  0.00    -0.477 OA
ATOM     14  H   UNL     1     -15.133  -2.134  -5.381  0.00  0.00    +0.295 HD
ENDBRANCH  11  13
ENDBRANCH   6  11
ENDBRANCH   1   7
BRANCH   2  15
ATOM     15  C   UNL     1     -17.416   2.839  -7.708  0.00  0.00    +0.040 A 
ATOM     16  C   UNL     1     -16.522   2.390  -8.698  0.00  0.00    +0.024 A 
ATOM     17  C   UNL     1     -15.996   3.262  -9.654  0.00  0.00    +0.008 A 
ATOM     18  C   UNL     1     -16.348   4.606  -9.626  0.00  0.00    +0.084 A 
ATOM     19  C   UNL     1     -17.203   5.068  -8.619  0.00  0.00    +0.275 A 
ATOM     20  C   UNL     1     -17.724   4.195  -7.645  0.00  0.00    +0.107 A 
BRANCH  19  21
ATOM     21  N   UNL     1     -17.577   6.487  -8.597  0.00  0.00    +0.080 N 
ATOM     22  O   UNL     1     -17.100   7.222  -9.473  0.00  0.00    +0.041 OA
ATOM     23  O   UNL     1     -18.330   6.872  -7.691  0.00  0.00    -0.576 OA
ENDBRANCH  19  21
ENDBRANCH   2  15
TORSDOF 5
ENDMDL
MODEL 4
REMARK VINA RESULT:      -6.9      2.568      6.172
REMARK  Name = min_compound975.pdb
REMARK  5 active torsions:
REMARK  status: ('A' for Active; 'I' for Inactive)
REMARK    1  A    between atoms: _2  and  _15
REMARK    2  A    between atoms: _5  and  _13
REMARK    3  A    between atoms: _7  and  _19
REMARK    4  A    between atoms: _8  and  _18
REMARK    5  A    between atoms: _15  and  _17
REMARK                            x       y       z     vdW  Elec       q    Type
REMARK                         _______ _______ _______ _____ _____    ______ ____
ROOT
ATOM      1  C   UNL     1     -15.168   4.751 -15.752  0.00  0.00    +0.249 C 
ATOM      2  N   UNL     1     -14.059   4.374 -16.470  0.00  0.00    -0.281 N 
ATOM      3  H   UNL     1     -14.037   4.907 -17.335  0.00  0.00    +0.155 HD
ATOM      4  O   UNL     1     -15.958   5.517 -16.310  0.00  0.00    -0.270 OA
ENDROOT
BRANCH   1   7
ATOM      5  C   UNL     1     -16.624   3.114 -12.652  0.00  0.00    +0.016 A 
ATOM      6  C   UNL     1     -16.324   3.400 -13.991  0.00  0.00    +0.071 A 
ATOM      7  C   UNL     1     -15.409   4.409 -14.331  0.00  0.00    +0.051 A 
ATOM      8  C   UNL     1     -14.866   5.188 -13.299  0.00  0.00    +0.014 A 
ATOM      9  C   UNL     1     -15.147   4.891 -11.960  0.00  0.00    +0.001 A 
ATOM     10  C   UNL     1     -16.019   3.851 -11.637  0.00  0.00    +0.001 A 
BRANCH   6  11
ATOM     11  C   UNL     1     -17.010   2.614 -15.023  0.00  0.00    +0.338 C 
ATOM     12  O   UNL     1     -18.130   2.809 -15.448  0.00  0.00    -0.245 OA
BRANCH  11  13
ATOM     13  O   UNL     1     -16.213   1.615 -15.439  0.00  0.00    -0.477 OA
ATOM     14  H   UNL     1     -15.907   1.900 -16.325  0.00  0.00    +0.295 HD
ENDBRANCH  11  13
ENDBRANCH   6  11
ENDBRANCH   1   7
BRANCH   2  15
ATOM     15  C   UNL     1     -13.006   3.459 -16.301  0.00  0.00    +0.040 A 
ATOM     16  C   UNL     1     -11.827   3.987 -15.745  0.00  0.00    +0.024 A 
ATOM     17  C   UNL     1     -10.721   3.177 -15.479  0.00  0.00    +0.008 A 
ATOM     18  C   UNL     1     -10.773   1.820 -15.780  0.00  0.00    +0.084 A 
ATOM     19  C   UNL     1     -11.928   1.297 -16.372  0.00  0.00    +0.275 A 
ATOM     20  C   UNL     1     -13.040   2.113 -16.655  0.00  0.00    +0.107 A 
BRANCH  19  21
ATOM     21  N   UNL     1     -11.982  -0.137 -16.682  0.00  0.00    +0.080 N 
ATOM     22  O   UNL     1     -11.034  -0.626 -17.313  0.00  0.00    +0.041 OA
ATOM     23  O   UNL     1     -12.982  -0.771 -16.313  0.00  0.00    -0.576 OA
ENDBRANCH  19  21
ENDBRANCH   2  15
TORSDOF 5
ENDMDL
MODEL 5
REMARK VINA RESULT:      -6.8      2.622      5.413
REMARK  Name = min_compound975.pdb
REMARK  5 active torsions:
REMARK  status: ('A' for Active; 'I' for Inactive)
REMARK    1  A    between atoms: _2  and  _15
REMARK    2  A    between atoms: _5  and  _13
REMARK    3  A    between atoms: _7  and  _19
REMARK    4  A    between atoms: _8  and  _18
REMARK    5  A    between atoms: _15  and  _17
REMARK                            x       y       z     vdW  Elec       q    Type
REMARK                         _______ _______ _______ _____ _____    ______ ____
ROOT
ATOM      1  C   UNL     1     -13.456   3.012 -16.327  0.00  0.00    +0.249 C 
ATOM      2  N   UNL     1     -13.919   3.792 -17.359  0.00  0.00    -0.281 N 
ATOM      3  H   UNL     1     -14.496   4.533 -16.971  0.00  0.00    +0.155 HD
ATOM      4  O   UNL     1     -13.904   3.253 -15.203  0.00  0.00    -0.270 OA
ENDROOT
BRANCH   1   7
ATOM      5  C   UNL     1     -10.004   1.477 -16.692  0.00  0.00    +0.016 A 
ATOM      6  C   UNL     1     -11.034   2.408 -16.498  0.00  0.00    +0.071 A 
ATOM      7  C   UNL     1     -12.377   2.004 -16.450  0.00  0.00    +0.051 A 
ATOM      8  C   UNL     1     -12.674   0.654 -16.691  0.00  0.00    +0.014 A 
ATOM      9  C   UNL     1     -11.647  -0.280 -16.864  0.00  0.00    +0.001 A 
ATOM     10  C   UNL     1     -10.313   0.129 -16.858  0.00  0.00    +0.001 A 
BRANCH   6  11
ATOM     11  C   UNL     1     -10.657   3.818 -16.357  0.00  0.00    +0.338 C 
ATOM     12  O   UNL     1     -10.843   4.696 -17.174  0.00  0.00    -0.245 OA
BRANCH  11  13
ATOM     13  O   UNL     1     -10.051   4.012 -15.173  0.00  0.00    -0.477 OA
ATOM     14  H   UNL     1     -10.297   4.925 -14.919  0.00  0.00    +0.295 HD
ENDBRANCH  11  13
ENDBRANCH   6  11
ENDBRANCH   1   7
BRANCH   2  15
ATOM     15  C   UNL     1     -13.798   3.795 -18.759  0.00  0.00    +0.040 A 
ATOM     16  C   UNL     1     -13.487   5.039 -19.338  0.00  0.00    +0.024 A 
ATOM     17  C   UNL     1     -13.291   5.173 -20.714  0.00  0.00    +0.008 A 
ATOM     18  C   UNL     1     -13.417   4.061 -21.539  0.00  0.00    +0.084 A 
ATOM     19  C   UNL     1     -13.768   2.829 -20.975  0.00  0.00    +0.275 A 
ATOM     20  C   UNL     1     -13.980   2.693 -19.590  0.00  0.00    +0.107 A 
BRANCH  19  21
ATOM     21  N   UNL     1     -13.894   1.657 -21.848  0.00  0.00    +0.080 N 
ATOM     22  O   UNL     1     -12.883   1.281 -22.458  0.00  0.00    +0.041 OA
ATOM     23  O   UNL     1     -15.009   1.122 -21.941  0.00  0.00    -0.576 OA
ENDBRANCH  19  21
ENDBRANCH   2  15
TORSDOF 5
ENDMDL
MODEL 6
REMARK VINA RESULT:      -6.7      1.395      2.354
REMARK  Name = min_compound975.pdb
REMARK  5 active torsions:
REMARK  status: ('A' for Active; 'I' for Inactive)
REMARK    1  A    between atoms: _2  and  _15
REMARK    2  A    between atoms: _5  and  _13
REMARK    3  A    between atoms: _7  and  _19
REMARK    4  A    between atoms: _8  and  _18
REMARK    5  A    between atoms: _15  and  _17
REMARK                            x       y       z     vdW  Elec       q    Type
REMARK                         _______ _______ _______ _____ _____    ______ ____
ROOT
ATOM      1  C   UNL     1     -12.640   4.231 -16.939  0.00  0.00    +0.249 C 
ATOM      2  N   UNL     1     -13.848   4.593 -16.392  0.00  0.00    -0.281 N 
ATOM      3  H   UNL     1     -14.143   5.470 -16.813  0.00  0.00    +0.155 HD
ATOM      4  O   UNL     1     -12.102   5.048 -17.691  0.00  0.00    -0.270 OA
ENDROOT
BRANCH   1   7
ATOM      5  C   UNL     1     -11.800   0.576 -17.524  0.00  0.00    +0.016 A 
ATOM      6  C   UNL     1     -12.321   1.867 -17.693  0.00  0.00    +0.071 A 
ATOM      7  C   UNL     1     -12.014   2.896 -16.790  0.00  0.00    +0.051 A 
ATOM      8  C   UNL     1     -11.242   2.583 -15.662  0.00  0.00    +0.014 A 
ATOM      9  C   UNL     1     -10.704   1.301 -15.502  0.00  0.00    +0.001 A 
ATOM     10  C   UNL     1     -10.976   0.301 -16.435  0.00  0.00    +0.001 A 
BRANCH   6  11
ATOM     11  C   UNL     1     -13.206   2.097 -18.839  0.00  0.00    +0.338 C 
ATOM     12  O   UNL     1     -14.217   2.769 -18.842  0.00  0.00    -0.245 OA
BRANCH  11  13
ATOM     13  O   UNL     1     -12.740   1.437 -19.913  0.00  0.00    -0.477 OA
ATOM     14  H   UNL     1     -12.124   0.771 -19.544  0.00  0.00    +0.295 HD
ENDBRANCH  11  13
ENDBRANCH   6  11
ENDBRANCH   1   7
BRANCH   2  15
ATOM     15  C   UNL     1     -14.720   4.067 -15.425  0.00  0.00    +0.040 A 
ATOM     16  C   UNL     1     -15.397   2.891 -15.794  0.00  0.00    +0.024 A 
ATOM     17  C   UNL     1     -16.258   2.237 -14.910  0.00  0.00    +0.008 A 
ATOM     18  C   UNL     1     -16.465   2.759 -13.639  0.00  0.00    +0.084 A 
ATOM     19  C   UNL     1     -15.826   3.952 -13.279  0.00  0.00    +0.275 A 
ATOM     20  C   UNL     1     -14.970   4.622 -14.173  0.00  0.00    +0.107 A 
BRANCH  19  21
ATOM     21  N   UNL     1     -16.042   4.497 -11.934  0.00  0.00    +0.080 N 
ATOM     22  O   UNL     1     -15.151   4.321 -11.091  0.00  0.00    +0.041 OA
ATOM     23  O   UNL     1     -17.112   5.084 -11.713  0.00  0.00    -0.576 OA
ENDBRANCH  19  21
ENDBRANCH   2  15
TORSDOF 5
ENDMDL
MODEL 7
REMARK VINA RESULT:      -6.6      2.051      2.554
REMARK  Name = min_compound975.pdb
REMARK  5 active torsions:
REMARK  status: ('A' for Active; 'I' for Inactive)
REMARK    1  A    between atoms: _2  and  _15
REMARK    2  A    between atoms: _5  and  _13
REMARK    3  A    between atoms: _7  and  _19
REMARK    4  A    between atoms: _8  and  _18
REMARK    5  A    between atoms: _15  and  _17
REMARK                            x       y       z     vdW  Elec       q    Type
REMARK                         _______ _______ _______ _____ _____    ______ ____
ROOT
ATOM      1  C   UNL     1     -14.295   3.411 -17.403  0.00  0.00    +0.249 C 
ATOM      2  N   UNL     1     -15.487   3.421 -16.719  0.00  0.00    -0.281 N 
ATOM      3  H   UNL     1     -16.226   3.128 -17.352  0.00  0.00    +0.155 HD
ATOM      4  O   UNL     1     -14.352   3.195 -18.617  0.00  0.00    -0.270 OA
ENDROOT
BRANCH   1   7
ATOM      5  C   UNL     1     -10.860   4.723 -16.462  0.00  0.00    +0.016 A 
ATOM      6  C   UNL     1     -12.157   4.642 -16.988  0.00  0.00    +0.071 A 
ATOM      7  C   UNL     1     -12.959   3.511 -16.771  0.00  0.00    +0.051 A 
ATOM      8  C   UNL     1     -12.400   2.421 -16.088  0.00  0.00    +0.014 A 
ATOM      9  C   UNL     1     -11.113   2.507 -15.544  0.00  0.00    +0.001 A 
ATOM     10  C   UNL     1     -10.347   3.658 -15.725  0.00  0.00    +0.001 A 
BRANCH   6  11
ATOM     11  C   UNL     1     -12.639   5.778 -17.781  0.00  0.00    +0.338 C 
ATOM     12  O   UNL     1     -13.212   6.760 -17.356  0.00  0.00    -0.245 OA
BRANCH  11  13
ATOM     13  O   UNL     1     -12.364   5.575 -19.081  0.00  0.00    -0.477 OA
ATOM     14  H   UNL     1     -11.402   5.389 -19.101  0.00  0.00    +0.295 HD
ENDBRANCH  11  13
ENDBRANCH   6  11
ENDBRANCH   1   7
BRANCH   2  15
ATOM     15  C   UNL     1     -15.904   3.739 -15.416  0.00  0.00    +0.040 A 
ATOM     16  C   UNL     1     -16.395   2.662 -14.656  0.00  0.00    +0.024 A 
ATOM     17  C   UNL     1     -16.798   2.830 -13.329  0.00  0.00    +0.008 A 
ATOM     18  C   UNL     1     -16.727   4.088 -12.743  0.00  0.00    +0.084 A 
ATOM     19  C   UNL     1     -16.280   5.173 -13.506  0.00  0.00    +0.275 A 
ATOM     20  C   UNL     1     -15.886   5.010 -14.848  0.00  0.00    +0.107 A 
BRANCH  19  21
ATOM     21  N   UNL     1     -16.201   6.499 -12.882  0.00  0.00    +0.080 N 
ATOM     22  O   UNL     1     -16.789   6.664 -11.804  0.00  0.00    +0.041 OA
ATOM     23  O   UNL     1     -15.568   7.382 -13.479  0.00  0.00    -0.576 OA
ENDBRANCH  19  21
ENDBRANCH   2  15
TORSDOF 5
ENDMDL
MODEL 8
REMARK VINA RESULT:      -6.5      7.456     10.222
REMARK  Name = min_compound975.pdb
REMARK  5 active torsions:
REMARK  status: ('A' for Active; 'I' for Inactive)
REMARK    1  A    between atoms: _2  and  _15
REMARK    2  A    between atoms: _5  and  _13
REMARK    3  A    between atoms: _7  and  _19
REMARK    4  A    between atoms: _8  and  _18
REMARK    5  A    between atoms: _15  and  _17
REMARK                            x       y       z     vdW  Elec       q    Type
REMARK                         _______ _______ _______ _____ _____    ______ ____
ROOT
ATOM      1  C   UNL     1     -17.376   0.984  -5.586  0.00  0.00    +0.249 C 
ATOM      2  N   UNL     1     -18.012   1.862  -6.432  0.00  0.00    -0.281 N 
ATOM      3  H   UNL     1     -19.006   1.650  -6.430  0.00  0.00    +0.155 HD
ATOM      4  O   UNL     1     -18.060   0.071  -5.115  0.00  0.00    -0.270 OA
ENDROOT
BRANCH   1   7
ATOM      5  C   UNL     1     -13.655   0.388  -5.137  0.00  0.00    +0.016 A 
ATOM      6  C   UNL     1     -14.965   0.316  -5.629  0.00  0.00    +0.071 A 
ATOM      7  C   UNL     1     -15.981   1.133  -5.110  0.00  0.00    +0.051 A 
ATOM      8  C   UNL     1     -15.676   1.963  -4.022  0.00  0.00    +0.014 A 
ATOM      9  C   UNL     1     -14.364   2.052  -3.542  0.00  0.00    +0.001 A 
ATOM     10  C   UNL     1     -13.354   1.271  -4.102  0.00  0.00    +0.001 A 
BRANCH   6  11
ATOM     11  C   UNL     1     -15.236  -0.651  -6.698  0.00  0.00    +0.338 C 
ATOM     12  O   UNL     1     -15.807  -0.422  -7.745  0.00  0.00    -0.245 OA
BRANCH  11  13
ATOM     13  O   UNL     1     -14.764  -1.860  -6.350  0.00  0.00    -0.477 OA
ATOM     14  H   UNL     1     -14.155  -1.678  -5.604  0.00  0.00    +0.295 HD
ENDBRANCH  11  13
ENDBRANCH   6  11
ENDBRANCH   1   7
BRANCH   2  15
ATOM     15  C   UNL     1     -17.625   2.923  -7.267  0.00  0.00    +0.040 A 
ATOM     16  C   UNL     1     -17.744   4.208  -6.708  0.00  0.00    +0.024 A 
ATOM     17  C   UNL     1     -17.349   5.348  -7.412  0.00  0.00    +0.008 A 
ATOM     18  C   UNL     1     -16.838   5.220  -8.699  0.00  0.00    +0.084 A 
ATOM     19  C   UNL     1     -16.756   3.947  -9.277  0.00  0.00    +0.275 A 
ATOM     20  C   UNL     1     -17.167   2.797  -8.575  0.00  0.00    +0.107 A 
BRANCH  19  21
ATOM     21  N   UNL     1     -16.211   3.815 -10.632  0.00  0.00    +0.080 N 
ATOM     22  O   UNL     1     -16.862   3.153 -11.453  0.00  0.00    +0.041 OA
ATOM     23  O   UNL     1     -15.122   4.355 -10.873  0.00  0.00    -0.576 OA
ENDBRANCH  19  21
ENDBRANCH   2  15
TORSDOF 5
ENDMDL
MODEL 9
REMARK VINA RESULT:      -6.5      1.907      2.703
REMARK  Name = min_compound975.pdb
REMARK  5 active torsions:
REMARK  status: ('A' for Active; 'I' for Inactive)
REMARK    1  A    between atoms: _2  and  _15
REMARK    2  A    between atoms: _5  and  _13
REMARK    3  A    between atoms: _7  and  _19
REMARK    4  A    between atoms: _8  and  _18
REMARK    5  A    between atoms: _15  and  _17
REMARK                            x       y       z     vdW  Elec       q    Type
REMARK                         _______ _______ _______ _____ _____    ______ ____
ROOT
ATOM      1  C   UNL     1     -13.706   3.137 -18.226  0.00  0.00    +0.249 C 
ATOM      2  N   UNL     1     -14.938   3.069 -17.621  0.00  0.00    -0.281 N 
ATOM      3  H   UNL     1     -15.604   2.685 -18.286  0.00  0.00    +0.155 HD
ATOM      4  O   UNL     1     -13.661   2.868 -19.429  0.00  0.00    -0.270 OA
ENDROOT
BRANCH   1   7
ATOM      5  C   UNL     1     -10.532   2.527 -16.235  0.00  0.00    +0.016 A 
ATOM      6  C   UNL     1     -11.701   2.310 -16.979  0.00  0.00    +0.071 A 
ATOM      7  C   UNL     1     -12.430   3.383 -17.514  0.00  0.00    +0.051 A 
ATOM      8  C   UNL     1     -12.011   4.687 -17.213  0.00  0.00    +0.014 A 
ATOM      9  C   UNL     1     -10.834   4.906 -16.489  0.00  0.00    +0.001 A 
ATOM     10  C   UNL     1     -10.092   3.829 -16.007  0.00  0.00    +0.001 A 
BRANCH   6  11
ATOM     11  C   UNL     1     -12.138   0.923 -17.166  0.00  0.00    +0.338 C 
ATOM     12  O   UNL     1     -12.774   0.257 -16.375  0.00  0.00    -0.245 OA
BRANCH  11  13
ATOM     13  O   UNL     1     -11.719   0.471 -18.361  0.00  0.00    -0.477 OA
ATOM     14  H   UNL     1     -12.493   0.584 -18.950  0.00  0.00    +0.295 HD
ENDBRANCH  11  13
ENDBRANCH   6  11
ENDBRANCH   1   7
BRANCH   2  15
ATOM     15  C   UNL     1     -15.469   3.401 -16.363  0.00  0.00    +0.040 A 
ATOM     16  C   UNL     1     -15.845   2.312 -15.557  0.00  0.00    +0.024 A 
ATOM     17  C   UNL     1     -16.342   2.499 -14.265  0.00  0.00    +0.008 A 
ATOM     18  C   UNL     1     -16.483   3.787 -13.762  0.00  0.00    +0.084 A 
ATOM     19  C   UNL     1     -16.151   4.877 -14.575  0.00  0.00    +0.275 A 
ATOM     20  C   UNL     1     -15.663   4.693 -15.882  0.00  0.00    +0.107 A 
BRANCH  19  21
ATOM     21  N   UNL     1     -16.295   6.235 -14.038  0.00  0.00    +0.080 N 
ATOM     22  O   UNL     1     -15.604   7.131 -14.544  0.00  0.00    +0.041 OA
ATOM     23  O   UNL     1     -17.084   6.404 -13.097  0.00  0.00    -0.576 OA
ENDBRANCH  19  21
ENDBRANCH   2  15
TORSDOF 5
ENDMDL
