MODEL 1
REMARK VINA RESULT:      -7.3      0.000      0.000
REMARK  Name = min_compound986.pdb
REMARK  4 active torsions:
REMARK  status: ('A' for Active; 'I' for Inactive)
REMARK    1  A    between atoms: _3  and  _16
REMARK    2  A    between atoms: _9  and  _17
REMARK    3  A    between atoms: _14  and  _21
REMARK    4  A    between atoms: _15  and  _18
REMARK                            x       y       z     vdW  Elec       q    Type
REMARK                         _______ _______ _______ _____ _____    ______ ____
ROOT
ATOM      1  C   UNL     1     -13.026   7.481 -17.971  0.00  0.00    +0.002 A 
ATOM      2  C   UNL     1     -11.956   6.612 -17.765  0.00  0.00    +0.026 A 
ATOM      3  C   UNL     1     -12.240   5.274 -17.438  0.00  0.00    +0.050 A 
ATOM      4  N   UNL     1     -11.396   4.219 -17.123  0.00  0.00    -0.342 N 
ATOM      5  C   UNL     1     -10.019   4.438 -16.734  0.00  0.00    +0.149 C 
ATOM      6  C   UNL     1     -12.089   3.016 -17.018  0.00  0.00    +0.061 A 
ATOM      7  C   UNL     1     -11.656   1.622 -16.890  0.00  0.00    +0.051 A 
ATOM      8  C   UNL     1     -10.308   1.154 -17.165  0.00  0.00    +0.127 A 
ATOM      9  C   UNL     1     -10.108  -0.205 -16.870  0.00  0.00    +0.049 A 
ATOM     10  C   UNL     1     -11.106  -1.076 -16.396  0.00  0.00    +0.049 A 
ATOM     11  C   UNL     1     -12.439  -0.700 -16.192  0.00  0.00    +0.125 A 
ATOM     12  C   UNL     1     -12.698   0.682 -16.480  0.00  0.00    +0.029 A 
ATOM     13  C   UNL     1     -14.022   1.137 -16.378  0.00  0.00    +0.013 A 
ATOM     14  C   UNL     1     -14.409   2.443 -16.661  0.00  0.00    +0.011 A 
ATOM     15  C   UNL     1     -13.437   3.403 -16.976  0.00  0.00    +0.009 A 
ATOM     16  C   UNL     1     -13.539   4.798 -17.314  0.00  0.00    +0.011 A 
ATOM     17  C   UNL     1     -14.629   5.691 -17.517  0.00  0.00    -0.041 A 
ATOM     18  C   UNL     1     -16.044   5.201 -17.417  0.00  0.00    +0.044 C 
ATOM     19  C   UNL     1     -14.337   7.034 -17.847  0.00  0.00    +0.004 A 
ENDROOT
BRANCH  11  20
ATOM     20  O   UNL     1     -13.302  -1.569 -15.787  0.00  0.00    -0.506 OA
ATOM     21  H   UNL     1     -13.709  -1.468 -14.948  0.00  0.00    +0.292 HD
ENDBRANCH  11  20
BRANCH   8  22
ATOM     22  O   UNL     1      -9.338   1.824 -17.676  0.00  0.00    -0.506 OA
ATOM     23  H   UNL     1      -9.053   1.642 -18.550  0.00  0.00    +0.292 HD
ENDBRANCH   8  22
TORSDOF 2
ENDMDL
MODEL 2
REMARK VINA RESULT:      -7.2     10.525     11.442
REMARK  Name = min_compound986.pdb
REMARK  4 active torsions:
REMARK  status: ('A' for Active; 'I' for Inactive)
REMARK    1  A    between atoms: _3  and  _16
REMARK    2  A    between atoms: _9  and  _17
REMARK    3  A    between atoms: _14  and  _21
REMARK    4  A    between atoms: _15  and  _18
REMARK                            x       y       z     vdW  Elec       q    Type
REMARK                         _______ _______ _______ _____ _____    ______ ____
ROOT
ATOM      1  C   UNL     1     -18.638   6.163  -8.138  0.00  0.00    +0.002 A 
ATOM      2  C   UNL     1     -18.101   5.726  -6.928  0.00  0.00    +0.026 A 
ATOM      3  C   UNL     1     -17.549   4.434  -6.875  0.00  0.00    +0.050 A 
ATOM      4  N   UNL     1     -17.010   3.722  -5.813  0.00  0.00    -0.342 N 
ATOM      5  C   UNL     1     -17.255   4.105  -4.438  0.00  0.00    +0.149 C 
ATOM      6  C   UNL     1     -16.428   2.529  -6.233  0.00  0.00    +0.061 A 
ATOM      7  C   UNL     1     -15.589   1.535  -5.558  0.00  0.00    +0.051 A 
ATOM      8  C   UNL     1     -14.899   1.764  -4.300  0.00  0.00    +0.127 A 
ATOM      9  C   UNL     1     -14.242   0.627  -3.798  0.00  0.00    +0.049 A 
ATOM     10  C   UNL     1     -14.194  -0.620  -4.446  0.00  0.00    +0.049 A 
ATOM     11  C   UNL     1     -14.770  -0.874  -5.697  0.00  0.00    +0.125 A 
ATOM     12  C   UNL     1     -15.455   0.257  -6.255  0.00  0.00    +0.029 A 
ATOM     13  C   UNL     1     -16.002   0.124  -7.541  0.00  0.00    +0.013 A 
ATOM     14  C   UNL     1     -16.661   1.154  -8.206  0.00  0.00    +0.011 A 
ATOM     15  C   UNL     1     -16.890   2.370  -7.548  0.00  0.00    +0.009 A 
ATOM     16  C   UNL     1     -17.523   3.590  -7.977  0.00  0.00    +0.011 A 
ATOM     17  C   UNL     1     -18.080   4.036  -9.208  0.00  0.00    -0.041 A 
ATOM     18  C   UNL     1     -18.044   3.158 -10.425  0.00  0.00    +0.044 C 
ATOM     19  C   UNL     1     -18.632   5.337  -9.256  0.00  0.00    +0.004 A 
ENDROOT
BRANCH  11  20
ATOM     20  O   UNL     1     -14.652  -2.038  -6.240  0.00  0.00    -0.506 OA
ATOM     21  H   UNL     1     -13.802  -2.376  -6.444  0.00  0.00    +0.292 HD
ENDBRANCH  11  20
BRANCH   8  22
ATOM     22  O   UNL     1     -14.796   2.871  -3.656  0.00  0.00    -0.506 OA
ATOM     23  H   UNL     1     -14.217   2.934  -2.922  0.00  0.00    +0.292 HD
ENDBRANCH   8  22
TORSDOF 2
ENDMDL
MODEL 3
REMARK VINA RESULT:      -7.0      2.257      6.430
REMARK  Name = min_compound986.pdb
REMARK  4 active torsions:
REMARK  status: ('A' for Active; 'I' for Inactive)
REMARK    1  A    between atoms: _3  and  _16
REMARK    2  A    between atoms: _9  and  _17
REMARK    3  A    between atoms: _14  and  _21
REMARK    4  A    between atoms: _15  and  _18
REMARK                            x       y       z     vdW  Elec       q    Type
REMARK                         _______ _______ _______ _____ _____    ______ ____
ROOT
ATOM      1  C   UNL     1     -12.465  -1.238 -16.082  0.00  0.00    +0.002 A 
ATOM      2  C   UNL     1     -13.444  -0.245 -16.086  0.00  0.00    +0.026 A 
ATOM      3  C   UNL     1     -13.067   1.057 -16.457  0.00  0.00    +0.050 A 
ATOM      4  N   UNL     1     -13.798   2.236 -16.493  0.00  0.00    -0.342 N 
ATOM      5  C   UNL     1     -15.055   2.373 -15.788  0.00  0.00    +0.149 C 
ATOM      6  C   UNL     1     -13.076   3.274 -17.077  0.00  0.00    +0.061 A 
ATOM      7  C   UNL     1     -13.441   4.626 -17.509  0.00  0.00    +0.051 A 
ATOM      8  C   UNL     1     -14.807   5.084 -17.697  0.00  0.00    +0.127 A 
ATOM      9  C   UNL     1     -14.910   6.450 -18.012  0.00  0.00    +0.049 A 
ATOM     10  C   UNL     1     -13.813   7.315 -18.184  0.00  0.00    +0.049 A 
ATOM     11  C   UNL     1     -12.476   6.910 -18.096  0.00  0.00    +0.125 A 
ATOM     12  C   UNL     1     -12.316   5.520 -17.775  0.00  0.00    +0.029 A 
ATOM     13  C   UNL     1     -11.012   5.000 -17.738  0.00  0.00    +0.013 A 
ATOM     14  C   UNL     1     -10.725   3.665 -17.472  0.00  0.00    +0.011 A 
ATOM     15  C   UNL     1     -11.761   2.787 -17.127  0.00  0.00    +0.009 A 
ATOM     16  C   UNL     1     -11.765   1.382 -16.814  0.00  0.00    +0.011 A 
ATOM     17  C   UNL     1     -10.767   0.368 -16.801  0.00  0.00    -0.041 A 
ATOM     18  C   UNL     1      -9.357   0.680 -17.208  0.00  0.00    +0.044 C 
ATOM     19  C   UNL     1     -11.152  -0.940 -16.428  0.00  0.00    +0.004 A 
ENDROOT
BRANCH  11  20
ATOM     20  O   UNL     1     -11.527   7.759 -18.300  0.00  0.00    -0.506 OA
ATOM     21  H   UNL     1     -10.953   7.652 -19.032  0.00  0.00    +0.292 HD
ENDBRANCH  11  20
BRANCH   8  22
ATOM     22  O   UNL     1     -15.880   4.379 -17.654  0.00  0.00    -0.506 OA
ATOM     23  H   UNL     1     -16.513   4.446 -18.342  0.00  0.00    +0.292 HD
ENDBRANCH   8  22
TORSDOF 2
ENDMDL
MODEL 4
REMARK VINA RESULT:      -6.9     14.260     15.629
REMARK  Name = min_compound986.pdb
REMARK  4 active torsions:
REMARK  status: ('A' for Active; 'I' for Inactive)
REMARK    1  A    between atoms: _3  and  _16
REMARK    2  A    between atoms: _9  and  _17
REMARK    3  A    between atoms: _14  and  _21
REMARK    4  A    between atoms: _15  and  _18
REMARK                            x       y       z     vdW  Elec       q    Type
REMARK                         _______ _______ _______ _____ _____    ______ ____
ROOT
ATOM      1  C   UNL     1     -13.743   1.948  -3.613  0.00  0.00    +0.002 A 
ATOM      2  C   UNL     1     -13.408   0.699  -3.092  0.00  0.00    +0.026 A 
ATOM      3  C   UNL     1     -14.428  -0.258  -2.953  0.00  0.00    +0.050 A 
ATOM      4  N   UNL     1     -14.403  -1.538  -2.418  0.00  0.00    -0.342 N 
ATOM      5  C   UNL     1     -13.323  -1.983  -1.563  0.00  0.00    +0.149 C 
ATOM      6  C   UNL     1     -15.606  -2.208  -2.623  0.00  0.00    +0.061 A 
ATOM      7  C   UNL     1     -16.022  -3.599  -2.424  0.00  0.00    +0.051 A 
ATOM      8  C   UNL     1     -15.103  -4.709  -2.236  0.00  0.00    +0.127 A 
ATOM      9  C   UNL     1     -15.740  -5.932  -1.959  0.00  0.00    +0.049 A 
ATOM     10  C   UNL     1     -17.134  -6.113  -1.908  0.00  0.00    +0.049 A 
ATOM     11  C   UNL     1     -18.064  -5.099  -2.163  0.00  0.00    +0.125 A 
ATOM     12  C   UNL     1     -17.465  -3.827  -2.451  0.00  0.00    +0.029 A 
ATOM     13  C   UNL     1     -18.315  -2.764  -2.794  0.00  0.00    +0.013 A 
ATOM     14  C   UNL     1     -17.858  -1.492  -3.127  0.00  0.00    +0.011 A 
ATOM     15  C   UNL     1     -16.491  -1.199  -3.034  0.00  0.00    +0.009 A 
ATOM     16  C   UNL     1     -15.744  -0.001  -3.314  0.00  0.00    +0.011 A 
ATOM     17  C   UNL     1     -16.084   1.278  -3.838  0.00  0.00    -0.041 A 
ATOM     18  C   UNL     1     -17.492   1.578  -4.262  0.00  0.00    +0.044 C 
ATOM     19  C   UNL     1     -15.054   2.236  -3.977  0.00  0.00    +0.004 A 
ENDROOT
BRANCH  11  20
ATOM     20  O   UNL     1     -19.328  -5.356  -2.129  0.00  0.00    -0.506 OA
ATOM     21  H   UNL     1     -19.927  -4.713  -1.804  0.00  0.00    +0.292 HD
ENDBRANCH  11  20
BRANCH   8  22
ATOM     22  O   UNL     1     -13.823  -4.690  -2.342  0.00  0.00    -0.506 OA
ATOM     23  H   UNL     1     -13.333  -5.482  -2.238  0.00  0.00    +0.292 HD
ENDBRANCH   8  22
TORSDOF 2
ENDMDL
MODEL 5
REMARK VINA RESULT:      -6.7     14.046     15.571
REMARK  Name = min_compound986.pdb
REMARK  4 active torsions:
REMARK  status: ('A' for Active; 'I' for Inactive)
REMARK    1  A    between atoms: _3  and  _16
REMARK    2  A    between atoms: _9  and  _17
REMARK    3  A    between atoms: _14  and  _21
REMARK    4  A    between atoms: _15  and  _18
REMARK                            x       y       z     vdW  Elec       q    Type
REMARK                         _______ _______ _______ _____ _____    ______ ____
ROOT
ATOM      1  C   UNL     1     -16.206   2.899  -4.206  0.00  0.00    +0.002 A 
ATOM      2  C   UNL     1     -17.127   1.854  -4.149  0.00  0.00    +0.026 A 
ATOM      3  C   UNL     1     -16.667   0.585  -3.756  0.00  0.00    +0.050 A 
ATOM      4  N   UNL     1     -17.329  -0.632  -3.669  0.00  0.00    -0.342 N 
ATOM      5  C   UNL     1     -18.595  -0.857  -4.334  0.00  0.00    +0.149 C 
ATOM      6  C   UNL     1     -16.534  -1.611  -3.080  0.00  0.00    +0.061 A 
ATOM      7  C   UNL     1     -16.811  -2.969  -2.604  0.00  0.00    +0.051 A 
ATOM      8  C   UNL     1     -18.143  -3.498  -2.366  0.00  0.00    +0.127 A 
ATOM      9  C   UNL     1     -18.159  -4.859  -2.013  0.00  0.00    +0.049 A 
ATOM     10  C   UNL     1     -17.012  -5.656  -1.851  0.00  0.00    +0.049 A 
ATOM     11  C   UNL     1     -15.703  -5.179  -1.987  0.00  0.00    +0.125 A 
ATOM     12  C   UNL     1     -15.630  -3.792  -2.347  0.00  0.00    +0.029 A 
ATOM     13  C   UNL     1     -14.359  -3.201  -2.434  0.00  0.00    +0.013 A 
ATOM     14  C   UNL     1     -14.155  -1.860  -2.741  0.00  0.00    +0.011 A 
ATOM     15  C   UNL     1     -15.248  -1.050  -3.079  0.00  0.00    +0.009 A 
ATOM     16  C   UNL     1     -15.340   0.343  -3.427  0.00  0.00    +0.011 A 
ATOM     17  C   UNL     1     -14.401   1.411  -3.494  0.00  0.00    -0.041 A 
ATOM     18  C   UNL     1     -12.965   1.189  -3.120  0.00  0.00    +0.044 C 
ATOM     19  C   UNL     1     -14.869   2.685  -3.889  0.00  0.00    +0.004 A 
ENDROOT
BRANCH  11  20
ATOM     20  O   UNL     1     -14.702  -5.968  -1.788  0.00  0.00    -0.506 OA
ATOM     21  H   UNL     1     -13.900  -5.629  -1.442  0.00  0.00    +0.292 HD
ENDBRANCH  11  20
BRANCH   8  22
ATOM     22  O   UNL     1     -19.255  -2.856  -2.396  0.00  0.00    -0.506 OA
ATOM     23  H   UNL     1     -20.044  -3.271  -2.109  0.00  0.00    +0.292 HD
ENDBRANCH   8  22
TORSDOF 2
ENDMDL
MODEL 6
REMARK VINA RESULT:      -6.7     12.901     14.874
REMARK  Name = min_compound986.pdb
REMARK  4 active torsions:
REMARK  status: ('A' for Active; 'I' for Inactive)
REMARK    1  A    between atoms: _3  and  _16
REMARK    2  A    between atoms: _9  and  _17
REMARK    3  A    between atoms: _14  and  _21
REMARK    4  A    between atoms: _15  and  _18
REMARK                            x       y       z     vdW  Elec       q    Type
REMARK                         _______ _______ _______ _____ _____    ______ ____
ROOT
ATOM      1  C   UNL     1     -17.270  -1.915  -0.097  0.00  0.00    +0.002 A 
ATOM      2  C   UNL     1     -17.892  -1.082  -1.026  0.00  0.00    +0.026 A 
ATOM      3  C   UNL     1     -17.159  -0.683  -2.157  0.00  0.00    +0.050 A 
ATOM      4  N   UNL     1     -17.490   0.175  -3.196  0.00  0.00    -0.342 N 
ATOM      5  C   UNL     1     -18.592   1.107  -3.089  0.00  0.00    +0.149 C 
ATOM      6  C   UNL     1     -16.525   0.168  -4.199  0.00  0.00    +0.061 A 
ATOM      7  C   UNL     1     -16.484   0.735  -5.550  0.00  0.00    +0.051 A 
ATOM      8  C   UNL     1     -17.652   1.205  -6.276  0.00  0.00    +0.127 A 
ATOM      9  C   UNL     1     -17.349   1.805  -7.511  0.00  0.00    +0.049 A 
ATOM     10  C   UNL     1     -16.053   1.916  -8.049  0.00  0.00    +0.049 A 
ATOM     11  C   UNL     1     -14.904   1.408  -7.432  0.00  0.00    +0.125 A 
ATOM     12  C   UNL     1     -15.159   0.785  -6.165  0.00  0.00    +0.029 A 
ATOM     13  C   UNL     1     -14.080   0.178  -5.502  0.00  0.00    +0.013 A 
ATOM     14  C   UNL     1     -14.201  -0.487  -4.286  0.00  0.00    +0.011 A 
ATOM     15  C   UNL     1     -15.431  -0.489  -3.615  0.00  0.00    +0.009 A 
ATOM     16  C   UNL     1     -15.848  -1.086  -2.373  0.00  0.00    +0.011 A 
ATOM     17  C   UNL     1     -15.213  -1.930  -1.418  0.00  0.00    -0.041 A 
ATOM     18  C   UNL     1     -13.806  -2.405  -1.637  0.00  0.00    +0.044 C 
ATOM     19  C   UNL     1     -15.956  -2.329  -0.285  0.00  0.00    +0.004 A 
ENDROOT
BRANCH  11  20
ATOM     20  O   UNL     1     -13.756   1.522  -8.008  0.00  0.00    -0.506 OA
ATOM     21  H   UNL     1     -13.706   1.792  -8.904  0.00  0.00    +0.292 HD
ENDBRANCH  11  20
BRANCH   8  22
ATOM     22  O   UNL     1     -18.884   1.085  -5.935  0.00  0.00    -0.506 OA
ATOM     23  H   UNL     1     -19.541   0.947  -6.590  0.00  0.00    +0.292 HD
ENDBRANCH   8  22
TORSDOF 2
ENDMDL
MODEL 7
REMARK VINA RESULT:      -6.6      2.279      2.957
REMARK  Name = min_compound986.pdb
REMARK  4 active torsions:
REMARK  status: ('A' for Active; 'I' for Inactive)
REMARK    1  A    between atoms: _3  and  _16
REMARK    2  A    between atoms: _9  and  _17
REMARK    3  A    between atoms: _14  and  _21
REMARK    4  A    between atoms: _15  and  _18
REMARK                            x       y       z     vdW  Elec       q    Type
REMARK                         _______ _______ _______ _____ _____    ______ ____
ROOT
ATOM      1  C   UNL     1     -17.078   6.335 -18.117  0.00  0.00    +0.002 A 
ATOM      2  C   UNL     1     -16.203   5.518 -18.831  0.00  0.00    +0.026 A 
ATOM      3  C   UNL     1     -15.200   4.837 -18.119  0.00  0.00    +0.050 A 
ATOM      4  N   UNL     1     -14.170   4.020 -18.562  0.00  0.00    -0.342 N 
ATOM      5  C   UNL     1     -13.745   4.016 -19.946  0.00  0.00    +0.149 C 
ATOM      6  C   UNL     1     -13.496   3.418 -17.503  0.00  0.00    +0.061 A 
ATOM      7  C   UNL     1     -12.484   2.359 -17.435  0.00  0.00    +0.051 A 
ATOM      8  C   UNL     1     -12.174   1.453 -18.527  0.00  0.00    +0.127 A 
ATOM      9  C   UNL     1     -11.094   0.592 -18.261  0.00  0.00    +0.049 A 
ATOM     10  C   UNL     1     -10.387   0.551 -17.045  0.00  0.00    +0.049 A 
ATOM     11  C   UNL     1     -10.695   1.342 -15.933  0.00  0.00    +0.125 A 
ATOM     12  C   UNL     1     -11.793   2.241 -16.153  0.00  0.00    +0.029 A 
ATOM     13  C   UNL     1     -12.227   3.024 -15.072  0.00  0.00    +0.013 A 
ATOM     14  C   UNL     1     -13.299   3.908 -15.145  0.00  0.00    +0.011 A 
ATOM     15  C   UNL     1     -13.940   4.121 -16.373  0.00  0.00    +0.009 A 
ATOM     16  C   UNL     1     -15.056   4.952 -16.743  0.00  0.00    +0.011 A 
ATOM     17  C   UNL     1     -15.947   5.793 -16.018  0.00  0.00    -0.041 A 
ATOM     18  C   UNL     1     -15.835   5.918 -14.527  0.00  0.00    +0.044 C 
ATOM     19  C   UNL     1     -16.954   6.475 -16.739  0.00  0.00    +0.004 A 
ENDROOT
BRANCH  11  20
ATOM     20  O   UNL     1     -10.018   1.220 -14.843  0.00  0.00    -0.506 OA
ATOM     21  H   UNL     1     -10.208   1.771 -14.109  0.00  0.00    +0.292 HD
ENDBRANCH  11  20
BRANCH   8  22
ATOM     22  O   UNL     1     -12.795   1.334 -19.645  0.00  0.00    -0.506 OA
ATOM     23  H   UNL     1     -13.088   2.098 -20.102  0.00  0.00    +0.292 HD
ENDBRANCH   8  22
TORSDOF 2
ENDMDL
MODEL 8
REMARK VINA RESULT:      -6.5     12.819     14.357
REMARK  Name = min_compound986.pdb
REMARK  4 active torsions:
REMARK  status: ('A' for Active; 'I' for Inactive)
REMARK    1  A    between atoms: _3  and  _16
REMARK    2  A    between atoms: _9  and  _17
REMARK    3  A    between atoms: _14  and  _21
REMARK    4  A    between atoms: _15  and  _18
REMARK                            x       y       z     vdW  Elec       q    Type
REMARK                         _______ _______ _______ _____ _____    ______ ____
ROOT
ATOM      1  C   UNL     1     -17.779   1.566  -8.250  0.00  0.00    +0.002 A 
ATOM      2  C   UNL     1     -18.415   0.922  -7.190  0.00  0.00    +0.026 A 
ATOM      3  C   UNL     1     -17.616   0.361  -6.178  0.00  0.00    +0.050 A 
ATOM      4  N   UNL     1     -17.961  -0.378  -5.056  0.00  0.00    -0.342 N 
ATOM      5  C   UNL     1     -19.259  -1.007  -4.930  0.00  0.00    +0.149 C 
ATOM      6  C   UNL     1     -16.864  -0.604  -4.228  0.00  0.00    +0.061 A 
ATOM      7  C   UNL     1     -16.729  -1.153  -2.876  0.00  0.00    +0.051 A 
ATOM      8  C   UNL     1     -17.831  -1.311  -1.943  0.00  0.00    +0.127 A 
ATOM      9  C   UNL     1     -17.474  -1.958  -0.747  0.00  0.00    +0.049 A 
ATOM     10  C   UNL     1     -16.172  -2.384  -0.427  0.00  0.00    +0.049 A 
ATOM     11  C   UNL     1     -15.059  -2.184  -1.252  0.00  0.00    +0.125 A 
ATOM     12  C   UNL     1     -15.370  -1.526  -2.489  0.00  0.00    +0.029 A 
ATOM     13  C   UNL     1     -14.308  -1.213  -3.352  0.00  0.00    +0.013 A 
ATOM     14  C   UNL     1     -14.472  -0.549  -4.563  0.00  0.00    +0.011 A 
ATOM     15  C   UNL     1     -15.762  -0.245  -5.019  0.00  0.00    +0.009 A 
ATOM     16  C   UNL     1     -16.229   0.427  -6.203  0.00  0.00    +0.011 A 
ATOM     17  C   UNL     1     -15.584   1.078  -7.292  0.00  0.00    -0.041 A 
ATOM     18  C   UNL     1     -14.087   1.190  -7.335  0.00  0.00    +0.044 C 
ATOM     19  C   UNL     1     -16.392   1.642  -8.305  0.00  0.00    +0.004 A 
ENDROOT
BRANCH  11  20
ATOM     20  O   UNL     1     -13.891  -2.576  -0.870  0.00  0.00    -0.506 OA
ATOM     21  H   UNL     1     -13.790  -3.410  -0.455  0.00  0.00    +0.292 HD
ENDBRANCH  11  20
BRANCH   8  22
ATOM     22  O   UNL     1     -19.038  -0.891  -2.080  0.00  0.00    -0.506 OA
ATOM     23  H   UNL     1     -19.315  -0.112  -1.639  0.00  0.00    +0.292 HD
ENDBRANCH   8  22
TORSDOF 2
ENDMDL
MODEL 9
REMARK VINA RESULT:      -6.4      3.172      5.712
REMARK  Name = min_compound986.pdb
REMARK  4 active torsions:
REMARK  status: ('A' for Active; 'I' for Inactive)
REMARK    1  A    between atoms: _3  and  _16
REMARK    2  A    between atoms: _9  and  _17
REMARK    3  A    between atoms: _14  and  _21
REMARK    4  A    between atoms: _15  and  _18
REMARK                            x       y       z     vdW  Elec       q    Type
REMARK                         _______ _______ _______ _____ _____    ______ ____
ROOT
ATOM      1  C   UNL     1     -10.231   3.259 -17.410  0.00  0.00    +0.002 A 
ATOM      2  C   UNL     1     -11.093   4.339 -17.226  0.00  0.00    +0.026 A 
ATOM      3  C   UNL     1     -12.393   4.078 -16.759  0.00  0.00    +0.050 A 
ATOM      4  N   UNL     1     -13.467   4.930 -16.544  0.00  0.00    -0.342 N 
ATOM      5  C   UNL     1     -13.513   6.256 -17.125  0.00  0.00    +0.149 C 
ATOM      6  C   UNL     1     -14.528   4.278 -15.922  0.00  0.00    +0.061 A 
ATOM      7  C   UNL     1     -15.781   4.752 -15.328  0.00  0.00    +0.051 A 
ATOM      8  C   UNL     1     -16.052   6.137 -14.982  0.00  0.00    +0.127 A 
ATOM      9  C   UNL     1     -17.362   6.363 -14.524  0.00  0.00    +0.049 A 
ATOM     10  C   UNL     1     -18.334   5.359 -14.359  0.00  0.00    +0.049 A 
ATOM     11  C   UNL     1     -18.104   4.000 -14.598  0.00  0.00    +0.125 A 
ATOM     12  C   UNL     1     -16.778   3.715 -15.068  0.00  0.00    +0.029 A 
ATOM     13  C   UNL     1     -16.426   2.370 -15.265  0.00  0.00    +0.013 A 
ATOM     14  C   UNL     1     -15.165   1.960 -15.686  0.00  0.00    +0.011 A 
ATOM     15  C   UNL     1     -14.202   2.918 -16.030  0.00  0.00    +0.009 A 
ATOM     16  C   UNL     1     -12.840   2.793 -16.480  0.00  0.00    +0.011 A 
ATOM     17  C   UNL     1     -11.960   1.693 -16.678  0.00  0.00    -0.041 A 
ATOM     18  C   UNL     1     -12.404   0.294 -16.361  0.00  0.00    +0.044 C 
ATOM     19  C   UNL     1     -10.653   1.961 -17.146  0.00  0.00    +0.004 A 
ENDROOT
BRANCH  11  20
ATOM     20  O   UNL     1     -19.040   3.138 -14.390  0.00  0.00    -0.506 OA
ATOM     21  H   UNL     1     -18.827   2.230 -14.293  0.00  0.00    +0.292 HD
ENDBRANCH  11  20
BRANCH   8  22
ATOM     22  O   UNL     1     -15.229   7.123 -15.006  0.00  0.00    -0.506 OA
ATOM     23  H   UNL     1     -14.538   7.142 -15.639  0.00  0.00    +0.292 HD
ENDBRANCH   8  22
TORSDOF 2
ENDMDL
