MODEL 1
REMARK VINA RESULT:      -7.2      0.000      0.000
REMARK  Name = min_compound932.pdb
REMARK  7 active torsions:
REMARK  status: ('A' for Active; 'I' for Inactive)
REMARK    1  A    between atoms: _3  and  _5
REMARK    2  A    between atoms: _6  and  _11
REMARK    3  A    between atoms: _7  and  _15
REMARK    4  A    between atoms: _11  and  _12
REMARK    5  A    between atoms: _11  and  _13
REMARK    6  A    between atoms: _11  and  _14
REMARK    7  A    between atoms: _16  and  _17
REMARK                            x       y       z     vdW  Elec       q    Type
REMARK                         _______ _______ _______ _____ _____    ______ ____
ROOT
ATOM      1  C   UNL     1     -11.891   0.705 -16.843  0.00  0.00    +0.068 A 
ATOM      2  C   UNL     1     -11.389   1.716 -17.669  0.00  0.00    +0.068 A 
ATOM      3  C   UNL     1     -12.330   2.729 -17.644  0.00  0.00    +0.125 A 
ATOM      4  N   UNL     1     -13.309   2.287 -16.759  0.00  0.00    -0.245 N 
ATOM      5  N   UNL     1     -13.048   1.044 -16.283  0.00  0.00    -0.174 NA
ENDROOT
BRANCH   3   6
ATOM      6  N   UNL     1     -12.348   3.937 -18.337  0.00  0.00    -0.254 N 
ATOM      7  H   UNL     1     -12.591   3.942 -19.314  0.00  0.00    +0.158 HD
ATOM      8  C   UNL     1     -11.778   5.086 -17.845  0.00  0.00    +0.309 C 
ATOM      9  N   UNL     1     -11.826   6.202 -18.632  0.00  0.00    -0.269 N 
ATOM     10  H   UNL     1     -11.166   6.890 -18.291  0.00  0.00    +0.156 HD
ATOM     11  O   UNL     1     -11.151   5.187 -16.792  0.00  0.00    -0.252 OA
BRANCH   9  12
ATOM     12  C   UNL     1     -12.607   6.590 -19.730  0.00  0.00    +0.035 A 
ATOM     13  C   UNL     1     -11.923   6.899 -20.913  0.00  0.00    +0.023 A 
ATOM     14  C   UNL     1     -12.616   7.295 -22.058  0.00  0.00    +0.002 A 
ATOM     15  C   UNL     1     -14.003   7.405 -22.025  0.00  0.00    +0.000 A 
ATOM     16  C   UNL     1     -14.690   7.141 -20.841  0.00  0.00    +0.002 A 
ATOM     17  C   UNL     1     -13.991   6.751 -19.693  0.00  0.00    +0.023 A 
ENDBRANCH   9  12
ENDBRANCH   3   6
BRANCH   4  18
ATOM     18  C   UNL     1     -14.551   2.947 -16.306  0.00  0.00    +0.057 C 
ATOM     19  C   UNL     1     -15.351   3.452 -17.519  0.00  0.00    +0.036 C 
ATOM     20  C   UNL     1     -14.244   4.104 -15.338  0.00  0.00    +0.036 C 
ATOM     21  C   UNL     1     -15.471   1.966 -15.525  0.00  0.00    +0.036 C 
ENDBRANCH   4  18
BRANCH   1  24
ATOM     22  C   UNL     1      -9.949  -0.670 -15.772  0.00  0.00    +0.010 C 
ATOM     23  C   UNL     1      -9.823  -0.842 -17.246  0.00  0.00    +0.010 C 
ATOM     24  C   UNL     1     -11.194  -0.630 -16.636  0.00  0.00    +0.040 C 
ENDBRANCH   1  24
TORSDOF 4
ENDMDL
MODEL 2
REMARK VINA RESULT:      -6.6      1.864      2.257
REMARK  Name = min_compound932.pdb
REMARK  7 active torsions:
REMARK  status: ('A' for Active; 'I' for Inactive)
REMARK    1  A    between atoms: _3  and  _5
REMARK    2  A    between atoms: _6  and  _11
REMARK    3  A    between atoms: _7  and  _15
REMARK    4  A    between atoms: _11  and  _12
REMARK    5  A    between atoms: _11  and  _13
REMARK    6  A    between atoms: _11  and  _14
REMARK    7  A    between atoms: _16  and  _17
REMARK                            x       y       z     vdW  Elec       q    Type
REMARK                         _______ _______ _______ _____ _____    ______ ____
ROOT
ATOM      1  C   UNL     1     -11.996   0.769 -16.980  0.00  0.00    +0.068 A 
ATOM      2  C   UNL     1     -11.717   1.373 -18.211  0.00  0.00    +0.068 A 
ATOM      3  C   UNL     1     -12.509   2.504 -18.267  0.00  0.00    +0.125 A 
ATOM      4  N   UNL     1     -13.170   2.540 -17.043  0.00  0.00    -0.245 N 
ATOM      5  N   UNL     1     -12.868   1.470 -16.265  0.00  0.00    -0.174 NA
ENDROOT
BRANCH   3   6
ATOM      6  N   UNL     1     -12.658   3.430 -19.297  0.00  0.00    -0.254 N 
ATOM      7  H   UNL     1     -12.242   4.342 -19.205  0.00  0.00    +0.158 HD
ATOM      8  C   UNL     1     -13.578   3.279 -20.306  0.00  0.00    +0.309 C 
ATOM      9  N   UNL     1     -13.658   4.272 -21.242  0.00  0.00    -0.269 N 
ATOM     10  H   UNL     1     -14.521   4.181 -21.765  0.00  0.00    +0.156 HD
ATOM     11  O   UNL     1     -14.400   2.369 -20.403  0.00  0.00    -0.252 OA
BRANCH   9  12
ATOM     12  C   UNL     1     -12.802   5.308 -21.642  0.00  0.00    +0.035 A 
ATOM     13  C   UNL     1     -12.128   5.136 -22.858  0.00  0.00    +0.023 A 
ATOM     14  C   UNL     1     -11.255   6.114 -23.337  0.00  0.00    +0.002 A 
ATOM     15  C   UNL     1     -11.032   7.268 -22.592  0.00  0.00    +0.000 A 
ATOM     16  C   UNL     1     -11.664   7.430 -21.361  0.00  0.00    +0.002 A 
ATOM     17  C   UNL     1     -12.534   6.444 -20.880  0.00  0.00    +0.023 A 
ENDBRANCH   9  12
ENDBRANCH   3   6
BRANCH   4  18
ATOM     18  C   UNL     1     -14.132   3.526 -16.508  0.00  0.00    +0.057 C 
ATOM     19  C   UNL     1     -13.636   4.953 -16.796  0.00  0.00    +0.036 C 
ATOM     20  C   UNL     1     -14.355   3.323 -14.998  0.00  0.00    +0.036 C 
ATOM     21  C   UNL     1     -15.531   3.383 -17.172  0.00  0.00    +0.036 C 
ENDBRANCH   4  18
BRANCH   1  24
ATOM     22  C   UNL     1     -10.094  -0.513 -15.736  0.00  0.00    +0.010 C 
ATOM     23  C   UNL     1     -10.066  -0.986 -17.148  0.00  0.00    +0.010 C 
ATOM     24  C   UNL     1     -11.381  -0.549 -16.536  0.00  0.00    +0.040 C 
ENDBRANCH   1  24
TORSDOF 4
ENDMDL
MODEL 3
REMARK VINA RESULT:      -6.6      2.316      6.572
REMARK  Name = min_compound932.pdb
REMARK  7 active torsions:
REMARK  status: ('A' for Active; 'I' for Inactive)
REMARK    1  A    between atoms: _3  and  _5
REMARK    2  A    between atoms: _6  and  _11
REMARK    3  A    between atoms: _7  and  _15
REMARK    4  A    between atoms: _11  and  _12
REMARK    5  A    between atoms: _11  and  _13
REMARK    6  A    between atoms: _11  and  _14
REMARK    7  A    between atoms: _16  and  _17
REMARK                            x       y       z     vdW  Elec       q    Type
REMARK                         _______ _______ _______ _____ _____    ______ ____
ROOT
ATOM      1  C   UNL     1     -15.560   4.971 -15.063  0.00  0.00    +0.068 A 
ATOM      2  C   UNL     1     -14.423   4.319 -14.572  0.00  0.00    +0.068 A 
ATOM      3  C   UNL     1     -13.746   3.848 -15.681  0.00  0.00    +0.125 A 
ATOM      4  N   UNL     1     -14.487   4.296 -16.770  0.00  0.00    -0.245 N 
ATOM      5  N   UNL     1     -15.603   4.968 -16.391  0.00  0.00    -0.174 NA
ENDROOT
BRANCH   3   6
ATOM      6  N   UNL     1     -12.584   3.083 -15.749  0.00  0.00    -0.254 N 
ATOM      7  H   UNL     1     -12.620   2.107 -15.504  0.00  0.00    +0.158 HD
ATOM      8  C   UNL     1     -11.332   3.639 -15.854  0.00  0.00    +0.309 C 
ATOM      9  N   UNL     1     -10.263   2.787 -15.876  0.00  0.00    -0.269 N 
ATOM     10  H   UNL     1      -9.411   3.303 -15.694  0.00  0.00    +0.156 HD
ATOM     11  O   UNL     1     -11.073   4.841 -15.847  0.00  0.00    -0.252 OA
BRANCH   9  12
ATOM     12  C   UNL     1     -10.109   1.419 -16.141  0.00  0.00    +0.035 A 
ATOM     13  C   UNL     1      -9.973   1.048 -17.485  0.00  0.00    +0.023 A 
ATOM     14  C   UNL     1      -9.816  -0.291 -17.845  0.00  0.00    +0.002 A 
ATOM     15  C   UNL     1      -9.812  -1.277 -16.862  0.00  0.00    +0.000 A 
ATOM     16  C   UNL     1      -9.990  -0.923 -15.527  0.00  0.00    +0.002 A 
ATOM     17  C   UNL     1     -10.154   0.420 -15.169  0.00  0.00    +0.023 A 
ENDBRANCH   9  12
ENDBRANCH   3   6
BRANCH   4  18
ATOM     18  C   UNL     1     -14.249   4.127 -18.219  0.00  0.00    +0.057 C 
ATOM     19  C   UNL     1     -15.510   4.519 -19.008  0.00  0.00    +0.036 C 
ATOM     20  C   UNL     1     -13.829   2.683 -18.549  0.00  0.00    +0.036 C 
ATOM     21  C   UNL     1     -13.092   5.037 -18.721  0.00  0.00    +0.036 C 
ENDBRANCH   4  18
BRANCH   1  24
ATOM     22  C   UNL     1     -16.322   6.911 -13.494  0.00  0.00    +0.010 C 
ATOM     23  C   UNL     1     -16.369   5.667 -12.677  0.00  0.00    +0.010 C 
ATOM     24  C   UNL     1     -16.623   5.588 -14.168  0.00  0.00    +0.040 C 
ENDBRANCH   1  24
TORSDOF 4
ENDMDL
MODEL 4
REMARK VINA RESULT:      -6.6      2.668      4.298
REMARK  Name = min_compound932.pdb
REMARK  7 active torsions:
REMARK  status: ('A' for Active; 'I' for Inactive)
REMARK    1  A    between atoms: _3  and  _5
REMARK    2  A    between atoms: _6  and  _11
REMARK    3  A    between atoms: _7  and  _15
REMARK    4  A    between atoms: _11  and  _12
REMARK    5  A    between atoms: _11  and  _13
REMARK    6  A    between atoms: _11  and  _14
REMARK    7  A    between atoms: _16  and  _17
REMARK                            x       y       z     vdW  Elec       q    Type
REMARK                         _______ _______ _______ _____ _____    ______ ____
ROOT
ATOM      1  C   UNL     1     -11.872   0.778 -17.254  0.00  0.00    +0.068 A 
ATOM      2  C   UNL     1     -12.458   1.500 -16.208  0.00  0.00    +0.068 A 
ATOM      3  C   UNL     1     -13.172   2.521 -16.806  0.00  0.00    +0.125 A 
ATOM      4  N   UNL     1     -13.019   2.314 -18.173  0.00  0.00    -0.245 N 
ATOM      5  N   UNL     1     -12.211   1.259 -18.445  0.00  0.00    -0.174 NA
ENDROOT
BRANCH   3   6
ATOM      6  N   UNL     1     -13.894   3.558 -16.218  0.00  0.00    -0.254 N 
ATOM      7  H   UNL     1     -13.447   4.447 -16.066  0.00  0.00    +0.158 HD
ATOM      8  C   UNL     1     -15.088   3.358 -15.568  0.00  0.00    +0.309 C 
ATOM      9  N   UNL     1     -15.687   4.446 -14.998  0.00  0.00    -0.269 N 
ATOM     10  H   UNL     1     -16.399   4.142 -14.345  0.00  0.00    +0.156 HD
ATOM     11  O   UNL     1     -15.634   2.272 -15.379  0.00  0.00    -0.252 OA
BRANCH   9  12
ATOM     12  C   UNL     1     -15.559   5.832 -15.167  0.00  0.00    +0.035 A 
ATOM     13  C   UNL     1     -15.758   6.628 -14.031  0.00  0.00    +0.023 A 
ATOM     14  C   UNL     1     -15.651   8.017 -14.104  0.00  0.00    +0.002 A 
ATOM     15  C   UNL     1     -15.362   8.628 -15.321  0.00  0.00    +0.000 A 
ATOM     16  C   UNL     1     -15.203   7.849 -16.465  0.00  0.00    +0.002 A 
ATOM     17  C   UNL     1     -15.318   6.456 -16.391  0.00  0.00    +0.023 A 
ENDBRANCH   9  12
ENDBRANCH   3   6
BRANCH   4  18
ATOM     18  C   UNL     1     -13.570   3.068 -19.319  0.00  0.00    +0.057 C 
ATOM     19  C   UNL     1     -13.422   2.244 -20.609  0.00  0.00    +0.036 C 
ATOM     20  C   UNL     1     -12.882   4.437 -19.466  0.00  0.00    +0.036 C 
ATOM     21  C   UNL     1     -15.085   3.364 -19.135  0.00  0.00    +0.036 C 
ENDBRANCH   4  18
BRANCH   1  24
ATOM     22  C   UNL     1      -9.842  -0.278 -16.000  0.00  0.00    +0.010 C 
ATOM     23  C   UNL     1      -9.488  -0.276 -17.447  0.00  0.00    +0.010 C 
ATOM     24  C   UNL     1     -10.940  -0.404 -17.036  0.00  0.00    +0.040 C 
ENDBRANCH   1  24
TORSDOF 4
ENDMDL
MODEL 5
REMARK VINA RESULT:      -6.6      9.285     13.094
REMARK  Name = min_compound932.pdb
REMARK  7 active torsions:
REMARK  status: ('A' for Active; 'I' for Inactive)
REMARK    1  A    between atoms: _3  and  _5
REMARK    2  A    between atoms: _6  and  _11
REMARK    3  A    between atoms: _7  and  _15
REMARK    4  A    between atoms: _11  and  _12
REMARK    5  A    between atoms: _11  and  _13
REMARK    6  A    between atoms: _11  and  _14
REMARK    7  A    between atoms: _16  and  _17
REMARK                            x       y       z     vdW  Elec       q    Type
REMARK                         _______ _______ _______ _____ _____    ______ ____
ROOT
ATOM      1  C   UNL     1     -17.850   3.001 -10.248  0.00  0.00    +0.068 A 
ATOM      2  C   UNL     1     -16.690   2.423  -9.720  0.00  0.00    +0.068 A 
ATOM      3  C   UNL     1     -17.082   1.778  -8.562  0.00  0.00    +0.125 A 
ATOM      4  N   UNL     1     -18.460   1.958  -8.499  0.00  0.00    -0.245 N 
ATOM      5  N   UNL     1     -18.925   2.719  -9.521  0.00  0.00    -0.174 NA
ENDROOT
BRANCH   3   6
ATOM      6  N   UNL     1     -16.309   1.093  -7.626  0.00  0.00    -0.254 N 
ATOM      7  H   UNL     1     -15.690   1.610  -7.025  0.00  0.00    +0.158 HD
ATOM      8  C   UNL     1     -16.125  -0.268  -7.666  0.00  0.00    +0.309 C 
ATOM      9  N   UNL     1     -15.315  -0.823  -6.715  0.00  0.00    -0.269 N 
ATOM     10  H   UNL     1     -15.052  -1.761  -6.995  0.00  0.00    +0.156 HD
ATOM     11  O   UNL     1     -16.555  -1.029  -8.531  0.00  0.00    -0.252 OA
BRANCH   9  12
ATOM     12  C   UNL     1     -14.843  -0.399  -5.465  0.00  0.00    +0.035 A 
ATOM     13  C   UNL     1     -14.085   0.779  -5.444  0.00  0.00    +0.023 A 
ATOM     14  C   UNL     1     -13.572   1.278  -4.245  0.00  0.00    +0.002 A 
ATOM     15  C   UNL     1     -13.798   0.591  -3.056  0.00  0.00    +0.000 A 
ATOM     16  C   UNL     1     -14.515  -0.603  -3.072  0.00  0.00    +0.002 A 
ATOM     17  C   UNL     1     -15.021  -1.105  -4.277  0.00  0.00    +0.023 A 
ENDBRANCH   9  12
ENDBRANCH   3   6
BRANCH   4  18
ATOM     18  C   UNL     1     -19.439   1.477  -7.502  0.00  0.00    +0.057 C 
ATOM     19  C   UNL     1     -19.750  -0.010  -7.747  0.00  0.00    +0.036 C 
ATOM     20  C   UNL     1     -20.731   2.315  -7.542  0.00  0.00    +0.036 C 
ATOM     21  C   UNL     1     -18.892   1.599  -6.053  0.00  0.00    +0.036 C 
ENDBRANCH   4  18
BRANCH   1  24
ATOM     22  C   UNL     1     -17.803   3.181 -12.851  0.00  0.00    +0.010 C 
ATOM     23  C   UNL     1     -16.612   3.925 -12.356  0.00  0.00    +0.010 C 
ATOM     24  C   UNL     1     -17.860   3.865 -11.500  0.00  0.00    +0.040 C 
ENDBRANCH   1  24
TORSDOF 4
ENDMDL
MODEL 6
REMARK VINA RESULT:      -6.6      2.317      5.399
REMARK  Name = min_compound932.pdb
REMARK  7 active torsions:
REMARK  status: ('A' for Active; 'I' for Inactive)
REMARK    1  A    between atoms: _3  and  _5
REMARK    2  A    between atoms: _6  and  _11
REMARK    3  A    between atoms: _7  and  _15
REMARK    4  A    between atoms: _11  and  _12
REMARK    5  A    between atoms: _11  and  _13
REMARK    6  A    between atoms: _11  and  _14
REMARK    7  A    between atoms: _16  and  _17
REMARK                            x       y       z     vdW  Elec       q    Type
REMARK                         _______ _______ _______ _____ _____    ______ ____
ROOT
ATOM      1  C   UNL     1     -11.022   1.172 -17.353  0.00  0.00    +0.068 A 
ATOM      2  C   UNL     1     -11.732   1.515 -16.197  0.00  0.00    +0.068 A 
ATOM      3  C   UNL     1     -12.801   2.282 -16.622  0.00  0.00    +0.125 A 
ATOM      4  N   UNL     1     -12.699   2.302 -18.009  0.00  0.00    -0.245 N 
ATOM      5  N   UNL     1     -11.603   1.637 -18.454  0.00  0.00    -0.174 NA
ENDROOT
BRANCH   3   6
ATOM      6  N   UNL     1     -13.784   2.922 -15.871  0.00  0.00    -0.254 N 
ATOM      7  H   UNL     1     -14.616   2.418 -15.614  0.00  0.00    +0.158 HD
ATOM      8  C   UNL     1     -13.822   4.285 -15.703  0.00  0.00    +0.309 C 
ATOM      9  N   UNL     1     -14.856   4.804 -14.975  0.00  0.00    -0.269 N 
ATOM     10  H   UNL     1     -14.923   5.801 -15.137  0.00  0.00    +0.156 HD
ATOM     11  O   UNL     1     -13.055   5.098 -16.218  0.00  0.00    -0.252 OA
BRANCH   9  12
ATOM     12  C   UNL     1     -15.765   4.268 -14.052  0.00  0.00    +0.035 A 
ATOM     13  C   UNL     1     -15.470   4.457 -12.695  0.00  0.00    +0.023 A 
ATOM     14  C   UNL     1     -16.316   3.958 -11.703  0.00  0.00    +0.002 A 
ATOM     15  C   UNL     1     -17.459   3.248 -12.060  0.00  0.00    +0.000 A 
ATOM     16  C   UNL     1     -17.739   3.019 -13.405  0.00  0.00    +0.002 A 
ATOM     17  C   UNL     1     -16.885   3.514 -14.397  0.00  0.00    +0.023 A 
ENDBRANCH   9  12
ENDBRANCH   3   6
BRANCH   4  18
ATOM     18  C   UNL     1     -13.569   2.940 -19.020  0.00  0.00    +0.057 C 
ATOM     19  C   UNL     1     -13.662   2.049 -20.271  0.00  0.00    +0.036 C 
ATOM     20  C   UNL     1     -13.055   4.343 -19.389  0.00  0.00    +0.036 C 
ATOM     21  C   UNL     1     -15.017   3.138 -18.489  0.00  0.00    +0.036 C 
ENDBRANCH   4  18
BRANCH   1  24
ATOM     22  C   UNL     1      -9.785  -1.108 -17.632  0.00  0.00    +0.010 C 
ATOM     23  C   UNL     1      -9.514  -0.650 -16.241  0.00  0.00    +0.010 C 
ATOM     24  C   UNL     1      -9.726   0.377 -17.334  0.00  0.00    +0.040 C 
ENDBRANCH   1  24
TORSDOF 4
ENDMDL
MODEL 7
REMARK VINA RESULT:      -6.4      2.619      6.989
REMARK  Name = min_compound932.pdb
REMARK  7 active torsions:
REMARK  status: ('A' for Active; 'I' for Inactive)
REMARK    1  A    between atoms: _3  and  _5
REMARK    2  A    between atoms: _6  and  _11
REMARK    3  A    between atoms: _7  and  _15
REMARK    4  A    between atoms: _11  and  _12
REMARK    5  A    between atoms: _11  and  _13
REMARK    6  A    between atoms: _11  and  _14
REMARK    7  A    between atoms: _16  and  _17
REMARK                            x       y       z     vdW  Elec       q    Type
REMARK                         _______ _______ _______ _____ _____    ______ ____
ROOT
ATOM      1  C   UNL     1     -12.341   5.942 -18.402  0.00  0.00    +0.068 A 
ATOM      2  C   UNL     1     -13.376   5.992 -17.461  0.00  0.00    +0.068 A 
ATOM      3  C   UNL     1     -13.309   4.802 -16.760  0.00  0.00    +0.125 A 
ATOM      4  N   UNL     1     -12.204   4.139 -17.284  0.00  0.00    -0.245 N 
ATOM      5  N   UNL     1     -11.623   4.829 -18.298  0.00  0.00    -0.174 NA
ENDROOT
BRANCH   3   6
ATOM      6  N   UNL     1     -14.142   4.321 -15.753  0.00  0.00    -0.254 N 
ATOM      7  H   UNL     1     -13.797   4.268 -14.809  0.00  0.00    +0.158 HD
ATOM      8  C   UNL     1     -15.310   3.645 -16.013  0.00  0.00    +0.309 C 
ATOM      9  N   UNL     1     -16.026   3.188 -14.942  0.00  0.00    -0.269 N 
ATOM     10  H   UNL     1     -16.703   2.501 -15.251  0.00  0.00    +0.156 HD
ATOM     11  O   UNL     1     -15.733   3.337 -17.125  0.00  0.00    -0.252 OA
BRANCH   9  12
ATOM     12  C   UNL     1     -16.050   3.504 -13.576  0.00  0.00    +0.035 A 
ATOM     13  C   UNL     1     -17.070   2.922 -12.812  0.00  0.00    +0.023 A 
ATOM     14  C   UNL     1     -17.174   3.180 -11.444  0.00  0.00    +0.002 A 
ATOM     15  C   UNL     1     -16.267   4.038 -10.829  0.00  0.00    +0.000 A 
ATOM     16  C   UNL     1     -15.275   4.654 -11.588  0.00  0.00    +0.002 A 
ATOM     17  C   UNL     1     -15.177   4.400 -12.961  0.00  0.00    +0.023 A 
ENDBRANCH   9  12
ENDBRANCH   3   6
BRANCH   4  18
ATOM     18  C   UNL     1     -11.616   2.832 -16.920  0.00  0.00    +0.057 C 
ATOM     19  C   UNL     1     -10.181   2.732 -17.464  0.00  0.00    +0.036 C 
ATOM     20  C   UNL     1     -12.478   1.670 -17.446  0.00  0.00    +0.036 C 
ATOM     21  C   UNL     1     -11.538   2.646 -15.379  0.00  0.00    +0.036 C 
ENDBRANCH   4  18
BRANCH   1  24
ATOM     22  C   UNL     1     -12.765   6.918 -20.784  0.00  0.00    +0.010 C 
ATOM     23  C   UNL     1     -11.297   6.696 -20.676  0.00  0.00    +0.010 C 
ATOM     24  C   UNL     1     -12.092   7.033 -19.431  0.00  0.00    +0.040 C 
ENDBRANCH   1  24
TORSDOF 4
ENDMDL
MODEL 8
REMARK VINA RESULT:      -6.4      2.637      5.380
REMARK  Name = min_compound932.pdb
REMARK  7 active torsions:
REMARK  status: ('A' for Active; 'I' for Inactive)
REMARK    1  A    between atoms: _3  and  _5
REMARK    2  A    between atoms: _6  and  _11
REMARK    3  A    between atoms: _7  and  _15
REMARK    4  A    between atoms: _11  and  _12
REMARK    5  A    between atoms: _11  and  _13
REMARK    6  A    between atoms: _11  and  _14
REMARK    7  A    between atoms: _16  and  _17
REMARK                            x       y       z     vdW  Elec       q    Type
REMARK                         _______ _______ _______ _____ _____    ______ ____
ROOT
ATOM      1  C   UNL     1     -11.270   0.747 -17.068  0.00  0.00    +0.068 A 
ATOM      2  C   UNL     1     -12.603   0.665 -16.651  0.00  0.00    +0.068 A 
ATOM      3  C   UNL     1     -13.020   1.968 -16.451  0.00  0.00    +0.125 A 
ATOM      4  N   UNL     1     -11.930   2.752 -16.817  0.00  0.00    -0.245 N 
ATOM      5  N   UNL     1     -10.857   2.005 -17.178  0.00  0.00    -0.174 NA
ENDROOT
BRANCH   3   6
ATOM      6  N   UNL     1     -14.242   2.444 -15.982  0.00  0.00    -0.254 N 
ATOM      7  H   UNL     1     -14.533   2.218 -15.045  0.00  0.00    +0.158 HD
ATOM      8  C   UNL     1     -15.207   2.961 -16.812  0.00  0.00    +0.309 C 
ATOM      9  N   UNL     1     -16.382   3.363 -16.240  0.00  0.00    -0.269 N 
ATOM     10  H   UNL     1     -17.090   3.475 -16.955  0.00  0.00    +0.156 HD
ATOM     11  O   UNL     1     -15.148   3.022 -18.039  0.00  0.00    -0.252 OA
BRANCH   9  12
ATOM     12  C   UNL     1     -16.770   3.689 -14.933  0.00  0.00    +0.035 A 
ATOM     13  C   UNL     1     -16.711   5.043 -14.576  0.00  0.00    +0.023 A 
ATOM     14  C   UNL     1     -17.078   5.462 -13.296  0.00  0.00    +0.002 A 
ATOM     15  C   UNL     1     -17.491   4.526 -12.352  0.00  0.00    +0.000 A 
ATOM     16  C   UNL     1     -17.512   3.173 -12.683  0.00  0.00    +0.002 A 
ATOM     17  C   UNL     1     -17.137   2.755 -13.966  0.00  0.00    +0.023 A 
ENDBRANCH   9  12
ENDBRANCH   3   6
BRANCH   4  18
ATOM     18  C   UNL     1     -11.781   4.223 -16.841  0.00  0.00    +0.057 C 
ATOM     19  C   UNL     1     -12.067   4.756 -18.256  0.00  0.00    +0.036 C 
ATOM     20  C   UNL     1     -10.375   4.646 -16.376  0.00  0.00    +0.036 C 
ATOM     21  C   UNL     1     -12.781   4.918 -15.877  0.00  0.00    +0.036 C 
ENDBRANCH   4  18
BRANCH   1  24
ATOM     22  C   UNL     1      -9.544  -1.014 -16.213  0.00  0.00    +0.010 C 
ATOM     23  C   UNL     1      -8.895  -0.306 -17.352  0.00  0.00    +0.010 C 
ATOM     24  C   UNL     1     -10.401  -0.471 -17.340  0.00  0.00    +0.040 C 
ENDBRANCH   1  24
TORSDOF 4
ENDMDL
MODEL 9
REMARK VINA RESULT:      -6.4      2.428      6.232
REMARK  Name = min_compound932.pdb
REMARK  7 active torsions:
REMARK  status: ('A' for Active; 'I' for Inactive)
REMARK    1  A    between atoms: _3  and  _5
REMARK    2  A    between atoms: _6  and  _11
REMARK    3  A    between atoms: _7  and  _15
REMARK    4  A    between atoms: _11  and  _12
REMARK    5  A    between atoms: _11  and  _13
REMARK    6  A    between atoms: _11  and  _14
REMARK    7  A    between atoms: _16  and  _17
REMARK                            x       y       z     vdW  Elec       q    Type
REMARK                         _______ _______ _______ _____ _____    ______ ____
ROOT
ATOM      1  C   UNL     1     -16.107   4.162 -18.974  0.00  0.00    +0.068 A 
ATOM      2  C   UNL     1     -14.772   3.760 -19.101  0.00  0.00    +0.068 A 
ATOM      3  C   UNL     1     -14.373   3.366 -17.838  0.00  0.00    +0.125 A 
ATOM      4  N   UNL     1     -15.508   3.500 -17.045  0.00  0.00    -0.245 N 
ATOM      5  N   UNL     1     -16.562   4.001 -17.736  0.00  0.00    -0.174 NA
ENDROOT
BRANCH   3   6
ATOM      6  N   UNL     1     -13.123   2.932 -17.400  0.00  0.00    -0.254 N 
ATOM      7  H   UNL     1     -13.062   2.127 -16.800  0.00  0.00    +0.158 HD
ATOM      8  C   UNL     1     -11.991   3.703 -17.501  0.00  0.00    +0.309 C 
ATOM      9  N   UNL     1     -10.828   3.186 -17.004  0.00  0.00    -0.269 N 
ATOM     10  H   UNL     1     -10.142   3.924 -16.899  0.00  0.00    +0.156 HD
ATOM     11  O   UNL     1     -11.938   4.857 -17.925  0.00  0.00    -0.252 OA
BRANCH   9  12
ATOM     12  C   UNL     1     -10.395   1.893 -16.678  0.00  0.00    +0.035 A 
ATOM     13  C   UNL     1      -9.758   1.165 -17.692  0.00  0.00    +0.023 A 
ATOM     14  C   UNL     1      -9.294  -0.130 -17.459  0.00  0.00    +0.002 A 
ATOM     15  C   UNL     1      -9.481  -0.720 -16.213  0.00  0.00    +0.000 A 
ATOM     16  C   UNL     1     -10.151  -0.022 -15.210  0.00  0.00    +0.002 A 
ATOM     17  C   UNL     1     -10.621   1.275 -15.448  0.00  0.00    +0.023 A 
ENDBRANCH   9  12
ENDBRANCH   3   6
BRANCH   4  18
ATOM     18  C   UNL     1     -15.708   3.206 -15.610  0.00  0.00    +0.057 C 
ATOM     19  C   UNL     1     -15.541   1.699 -15.354  0.00  0.00    +0.036 C 
ATOM     20  C   UNL     1     -17.089   3.689 -15.131  0.00  0.00    +0.036 C 
ATOM     21  C   UNL     1     -14.664   3.941 -14.722  0.00  0.00    +0.036 C 
ENDBRANCH   4  18
BRANCH   1  24
ATOM     22  C   UNL     1     -17.561   3.771 -21.105  0.00  0.00    +0.010 C 
ATOM     23  C   UNL     1     -16.395   4.590 -21.536  0.00  0.00    +0.010 C 
ATOM     24  C   UNL     1     -16.922   4.733 -20.123  0.00  0.00    +0.040 C 
ENDBRANCH   1  24
TORSDOF 4
ENDMDL
