MODEL 1
REMARK VINA RESULT:      -8.1      0.000      0.000
REMARK  Name = min_compound979.pdb
REMARK  3 active torsions:
REMARK  status: ('A' for Active; 'I' for Inactive)
REMARK    1  A    between atoms: _12  and  _19
REMARK    2  A    between atoms: _14  and  _18
REMARK    3  A    between atoms: _19  and  _20
REMARK                            x       y       z     vdW  Elec       q    Type
REMARK                         _______ _______ _______ _____ _____    ______ ____
ROOT
ATOM      1  C   UNL     1     -12.406   2.098 -17.985  0.00  0.00    +0.189 C 
ATOM      2  O   UNL     1     -12.947   1.888 -19.105  0.00  0.00    -0.287 OA
ATOM      3  C   UNL     1     -11.465   1.182 -17.292  0.00  0.00    +0.025 A 
ATOM      4  C   UNL     1     -11.037  -0.035 -17.837  0.00  0.00    +0.012 A 
ATOM      5  C   UNL     1     -10.155  -0.856 -17.133  0.00  0.00    +0.001 A 
ATOM      6  C   UNL     1      -9.699  -0.469 -15.874  0.00  0.00    +0.000 A 
ATOM      7  C   UNL     1     -10.124   0.741 -15.318  0.00  0.00    +0.004 A 
ATOM      8  C   UNL     1     -10.997   1.573 -16.031  0.00  0.00    -0.036 A 
ATOM      9  C   UNL     1     -11.502   2.881 -15.469  0.00  0.00    +0.040 C 
ATOM     10  C   UNL     1     -11.609   4.073 -16.568  0.00  0.00    +0.043 C 
ATOM     11  C   UNL     1     -12.687   3.435 -17.392  0.00  0.00    +0.001 C 
ATOM     12  C   UNL     1     -13.840   4.111 -17.624  0.00  0.00    +0.015 C 
ENDROOT
BRANCH  12  13
ATOM     13  C   UNL     1     -14.201   5.481 -17.218  0.00  0.00    -0.021 A 
ATOM     14  C   UNL     1     -13.790   6.627 -17.905  0.00  0.00    +0.008 A 
ATOM     15  C   UNL     1     -14.184   7.895 -17.470  0.00  0.00    +0.004 A 
ATOM     16  C   UNL     1     -14.963   8.036 -16.319  0.00  0.00    +0.045 A 
ATOM     17  C   UNL     1     -15.343   6.908 -15.593  0.00  0.00    +0.121 A 
ATOM     18  C   UNL     1     -14.965   5.642 -16.052  0.00  0.00    +0.053 A 
BRANCH  17  19
ATOM     19  O   UNL     1     -16.080   6.907 -14.440  0.00  0.00    -0.495 OA
ATOM     20  C   UNL     1     -15.750   5.925 -13.468  0.00  0.00    +0.277 C 
ENDBRANCH  17  19
ENDBRANCH  12  13
TORSDOF 2
ENDMDL
MODEL 2
REMARK VINA RESULT:      -7.9      1.744      2.385
REMARK  Name = min_compound979.pdb
REMARK  3 active torsions:
REMARK  status: ('A' for Active; 'I' for Inactive)
REMARK    1  A    between atoms: _12  and  _19
REMARK    2  A    between atoms: _14  and  _18
REMARK    3  A    between atoms: _19  and  _20
REMARK                            x       y       z     vdW  Elec       q    Type
REMARK                         _______ _______ _______ _____ _____    ______ ____
ROOT
ATOM      1  C   UNL     1     -11.112   3.480 -16.192  0.00  0.00    +0.189 C 
ATOM      2  O   UNL     1     -10.289   4.241 -15.615  0.00  0.00    -0.287 OA
ATOM      3  C   UNL     1     -11.058   1.996 -16.205  0.00  0.00    +0.025 A 
ATOM      4  C   UNL     1     -10.077   1.258 -15.530  0.00  0.00    +0.012 A 
ATOM      5  C   UNL     1     -10.076  -0.137 -15.586  0.00  0.00    +0.001 A 
ATOM      6  C   UNL     1     -11.053  -0.805 -16.323  0.00  0.00    +0.000 A 
ATOM      7  C   UNL     1     -12.032  -0.078 -17.005  0.00  0.00    +0.004 A 
ATOM      8  C   UNL     1     -12.043   1.321 -16.937  0.00  0.00    -0.036 A 
ATOM      9  C   UNL     1     -13.068   2.155 -17.670  0.00  0.00    +0.040 C 
ATOM     10  C   UNL     1     -13.589   3.446 -16.831  0.00  0.00    +0.043 C 
ATOM     11  C   UNL     1     -12.275   4.168 -16.817  0.00  0.00    +0.001 C 
ATOM     12  C   UNL     1     -12.202   5.433 -17.304  0.00  0.00    +0.015 C 
ENDROOT
BRANCH  12  13
ATOM     13  C   UNL     1     -13.288   6.282 -17.826  0.00  0.00    -0.021 A 
ATOM     14  C   UNL     1     -13.718   6.262 -19.156  0.00  0.00    +0.008 A 
ATOM     15  C   UNL     1     -14.764   7.086 -19.576  0.00  0.00    +0.004 A 
ATOM     16  C   UNL     1     -15.371   7.970 -18.680  0.00  0.00    +0.045 A 
ATOM     17  C   UNL     1     -14.925   8.038 -17.361  0.00  0.00    +0.121 A 
ATOM     18  C   UNL     1     -13.893   7.191 -16.944  0.00  0.00    +0.053 A 
BRANCH  17  19
ATOM     19  O   UNL     1     -15.411   8.874 -16.393  0.00  0.00    -0.495 OA
ATOM     20  C   UNL     1     -15.500   8.349 -15.075  0.00  0.00    +0.277 C 
ENDBRANCH  17  19
ENDBRANCH  12  13
TORSDOF 2
ENDMDL
MODEL 3
REMARK VINA RESULT:      -7.6      2.332      3.362
REMARK  Name = min_compound979.pdb
REMARK  3 active torsions:
REMARK  status: ('A' for Active; 'I' for Inactive)
REMARK    1  A    between atoms: _12  and  _19
REMARK    2  A    between atoms: _14  and  _18
REMARK    3  A    between atoms: _19  and  _20
REMARK                            x       y       z     vdW  Elec       q    Type
REMARK                         _______ _______ _______ _____ _____    ______ ____
ROOT
ATOM      1  C   UNL     1     -11.034   3.500 -16.277  0.00  0.00    +0.189 C 
ATOM      2  O   UNL     1     -10.149   4.249 -15.780  0.00  0.00    -0.287 OA
ATOM      3  C   UNL     1     -11.026   2.016 -16.252  0.00  0.00    +0.025 A 
ATOM      4  C   UNL     1     -10.023   1.264 -15.627  0.00  0.00    +0.012 A 
ATOM      5  C   UNL     1     -10.068  -0.131 -15.643  0.00  0.00    +0.001 A 
ATOM      6  C   UNL     1     -11.115  -0.786 -16.292  0.00  0.00    +0.000 A 
ATOM      7  C   UNL     1     -12.118  -0.046 -16.923  0.00  0.00    +0.004 A 
ATOM      8  C   UNL     1     -12.081   1.355 -16.894  0.00  0.00    -0.036 A 
ATOM      9  C   UNL     1     -13.129   2.202 -17.576  0.00  0.00    +0.040 C 
ATOM     10  C   UNL     1     -13.550   3.531 -16.739  0.00  0.00    +0.043 C 
ATOM     11  C   UNL     1     -12.216   4.210 -16.837  0.00  0.00    +0.001 C 
ATOM     12  C   UNL     1     -12.140   5.458 -17.364  0.00  0.00    +0.015 C 
ENDROOT
BRANCH  12  13
ATOM     13  C   UNL     1     -13.233   6.329 -17.831  0.00  0.00    -0.021 A 
ATOM     14  C   UNL     1     -13.934   7.208 -17.001  0.00  0.00    +0.008 A 
ATOM     15  C   UNL     1     -14.950   8.015 -17.518  0.00  0.00    +0.004 A 
ATOM     16  C   UNL     1     -15.306   7.927 -18.865  0.00  0.00    +0.045 A 
ATOM     17  C   UNL     1     -14.650   7.023 -19.700  0.00  0.00    +0.121 A 
ATOM     18  C   UNL     1     -13.617   6.237 -19.178  0.00  0.00    +0.053 A 
BRANCH  17  19
ATOM     19  O   UNL     1     -14.917   6.818 -21.026  0.00  0.00    -0.495 OA
ATOM     20  C   UNL     1     -14.277   5.711 -21.647  0.00  0.00    +0.277 C 
ENDBRANCH  17  19
ENDBRANCH  12  13
TORSDOF 2
ENDMDL
MODEL 4
REMARK VINA RESULT:      -7.0      1.615      2.574
REMARK  Name = min_compound979.pdb
REMARK  3 active torsions:
REMARK  status: ('A' for Active; 'I' for Inactive)
REMARK    1  A    between atoms: _12  and  _19
REMARK    2  A    between atoms: _14  and  _18
REMARK    3  A    between atoms: _19  and  _20
REMARK                            x       y       z     vdW  Elec       q    Type
REMARK                         _______ _______ _______ _____ _____    ______ ____
ROOT
ATOM      1  C   UNL     1     -13.672   1.821 -16.026  0.00  0.00    +0.189 C 
ATOM      2  O   UNL     1     -14.741   1.150 -16.010  0.00  0.00    -0.287 OA
ATOM      3  C   UNL     1     -12.331   1.303 -16.396  0.00  0.00    +0.025 A 
ATOM      4  C   UNL     1     -12.104  -0.016 -16.810  0.00  0.00    +0.012 A 
ATOM      5  C   UNL     1     -10.817  -0.445 -17.139  0.00  0.00    +0.001 A 
ATOM      6  C   UNL     1      -9.744   0.441 -17.049  0.00  0.00    +0.000 A 
ATOM      7  C   UNL     1      -9.958   1.757 -16.631  0.00  0.00    +0.004 A 
ATOM      8  C   UNL     1     -11.252   2.193 -16.316  0.00  0.00    -0.036 A 
ATOM      9  C   UNL     1     -11.536   3.599 -15.842  0.00  0.00    +0.040 C 
ATOM     10  C   UNL     1     -12.912   4.229 -16.433  0.00  0.00    +0.043 C 
ATOM     11  C   UNL     1     -13.836   3.273 -15.740  0.00  0.00    +0.001 C 
ATOM     12  C   UNL     1     -14.820   3.755 -14.940  0.00  0.00    +0.015 C 
ENDROOT
BRANCH  12  13
ATOM     13  C   UNL     1     -15.183   5.158 -14.672  0.00  0.00    -0.021 A 
ATOM     14  C   UNL     1     -15.537   5.639 -13.408  0.00  0.00    +0.008 A 
ATOM     15  C   UNL     1     -15.856   6.987 -13.226  0.00  0.00    +0.004 A 
ATOM     16  C   UNL     1     -15.862   7.865 -14.312  0.00  0.00    +0.045 A 
ATOM     17  C   UNL     1     -15.557   7.394 -15.588  0.00  0.00    +0.121 A 
ATOM     18  C   UNL     1     -15.215   6.048 -15.756  0.00  0.00    +0.053 A 
BRANCH  17  19
ATOM     19  O   UNL     1     -15.552   8.138 -16.737  0.00  0.00    -0.495 OA
ATOM     20  C   UNL     1     -14.437   7.976 -17.602  0.00  0.00    +0.277 C 
ENDBRANCH  17  19
ENDBRANCH  12  13
TORSDOF 2
ENDMDL
MODEL 5
REMARK VINA RESULT:      -6.9      2.363      7.194
REMARK  Name = min_compound979.pdb
REMARK  3 active torsions:
REMARK  status: ('A' for Active; 'I' for Inactive)
REMARK    1  A    between atoms: _12  and  _19
REMARK    2  A    between atoms: _14  and  _18
REMARK    3  A    between atoms: _19  and  _20
REMARK                            x       y       z     vdW  Elec       q    Type
REMARK                         _______ _______ _______ _____ _____    ______ ____
ROOT
ATOM      1  C   UNL     1     -15.661   5.080 -14.808  0.00  0.00    +0.189 C 
ATOM      2  O   UNL     1     -15.205   6.201 -15.165  0.00  0.00    -0.287 OA
ATOM      3  C   UNL     1     -16.851   4.863 -13.948  0.00  0.00    +0.025 A 
ATOM      4  C   UNL     1     -17.641   5.907 -13.451  0.00  0.00    +0.012 A 
ATOM      5  C   UNL     1     -18.745   5.639 -12.642  0.00  0.00    +0.001 A 
ATOM      6  C   UNL     1     -19.065   4.321 -12.316  0.00  0.00    +0.000 A 
ATOM      7  C   UNL     1     -18.281   3.272 -12.800  0.00  0.00    +0.004 A 
ATOM      8  C   UNL     1     -17.181   3.539 -13.626  0.00  0.00    -0.036 A 
ATOM      9  C   UNL     1     -16.290   2.444 -14.161  0.00  0.00    +0.040 C 
ATOM     10  C   UNL     1     -15.797   2.682 -15.692  0.00  0.00    +0.043 C 
ATOM     11  C   UNL     1     -14.973   3.902 -15.405  0.00  0.00    +0.001 C 
ATOM     12  C   UNL     1     -13.662   3.920 -15.755  0.00  0.00    +0.015 C 
ENDROOT
BRANCH  12  13
ATOM     13  C   UNL     1     -12.885   2.889 -16.467  0.00  0.00    -0.021 A 
ATOM     14  C   UNL     1     -13.127   2.513 -17.792  0.00  0.00    +0.008 A 
ATOM     15  C   UNL     1     -12.339   1.537 -18.408  0.00  0.00    +0.004 A 
ATOM     16  C   UNL     1     -11.324   0.896 -17.695  0.00  0.00    +0.045 A 
ATOM     17  C   UNL     1     -11.098   1.223 -16.359  0.00  0.00    +0.121 A 
ATOM     18  C   UNL     1     -11.876   2.220 -15.759  0.00  0.00    +0.053 A 
BRANCH  17  19
ATOM     19  O   UNL     1     -10.158   0.656 -15.542  0.00  0.00    -0.495 OA
ATOM     20  C   UNL     1      -9.768  -0.677 -15.840  0.00  0.00    +0.277 C 
ENDBRANCH  17  19
ENDBRANCH  12  13
TORSDOF 2
ENDMDL
MODEL 6
REMARK VINA RESULT:      -6.9      7.491     10.238
REMARK  Name = min_compound979.pdb
REMARK  3 active torsions:
REMARK  status: ('A' for Active; 'I' for Inactive)
REMARK    1  A    between atoms: _12  and  _19
REMARK    2  A    between atoms: _14  and  _18
REMARK    3  A    between atoms: _19  and  _20
REMARK                            x       y       z     vdW  Elec       q    Type
REMARK                         _______ _______ _______ _____ _____    ______ ____
ROOT
ATOM      1  C   UNL     1     -16.682   2.381  -5.976  0.00  0.00    +0.189 C 
ATOM      2  O   UNL     1     -17.615   3.060  -5.465  0.00  0.00    -0.287 OA
ATOM      3  C   UNL     1     -15.734   1.513  -5.233  0.00  0.00    +0.025 A 
ATOM      4  C   UNL     1     -15.793   1.322  -3.847  0.00  0.00    +0.012 A 
ATOM      5  C   UNL     1     -14.868   0.498  -3.204  0.00  0.00    +0.001 A 
ATOM      6  C   UNL     1     -13.871  -0.137  -3.944  0.00  0.00    +0.000 A 
ATOM      7  C   UNL     1     -13.799   0.051  -5.326  0.00  0.00    +0.004 A 
ATOM      8  C   UNL     1     -14.737   0.866  -5.974  0.00  0.00    -0.036 A 
ATOM      9  C   UNL     1     -14.693   1.118  -7.463  0.00  0.00    +0.040 C 
ATOM     10  C   UNL     1     -16.157   1.168  -8.166  0.00  0.00    +0.043 C 
ATOM     11  C   UNL     1     -16.630   2.405  -7.464  0.00  0.00    +0.001 C 
ATOM     12  C   UNL     1     -17.053   3.468  -8.194  0.00  0.00    +0.015 C 
ENDROOT
BRANCH  12  13
ATOM     13  C   UNL     1     -17.183   3.586  -9.658  0.00  0.00    -0.021 A 
ATOM     14  C   UNL     1     -18.356   3.293 -10.358  0.00  0.00    +0.008 A 
ATOM     15  C   UNL     1     -18.410   3.443 -11.746  0.00  0.00    +0.004 A 
ATOM     16  C   UNL     1     -17.279   3.851 -12.457  0.00  0.00    +0.045 A 
ATOM     17  C   UNL     1     -16.086   4.103 -11.782  0.00  0.00    +0.121 A 
ATOM     18  C   UNL     1     -16.050   3.974 -10.389  0.00  0.00    +0.053 A 
BRANCH  17  19
ATOM     19  O   UNL     1     -14.904   4.481 -12.357  0.00  0.00    -0.495 OA
ATOM     20  C   UNL     1     -14.779   4.285 -13.759  0.00  0.00    +0.277 C 
ENDBRANCH  17  19
ENDBRANCH  12  13
TORSDOF 2
ENDMDL
MODEL 7
REMARK VINA RESULT:      -6.9      1.891      2.506
REMARK  Name = min_compound979.pdb
REMARK  3 active torsions:
REMARK  status: ('A' for Active; 'I' for Inactive)
REMARK    1  A    between atoms: _12  and  _19
REMARK    2  A    between atoms: _14  and  _18
REMARK    3  A    between atoms: _19  and  _20
REMARK                            x       y       z     vdW  Elec       q    Type
REMARK                         _______ _______ _______ _____ _____    ______ ____
ROOT
ATOM      1  C   UNL     1     -12.117   3.857 -16.609  0.00  0.00    +0.189 C 
ATOM      2  O   UNL     1     -11.388   4.876 -16.749  0.00  0.00    -0.287 OA
ATOM      3  C   UNL     1     -11.671   2.447 -16.747  0.00  0.00    +0.025 A 
ATOM      4  C   UNL     1     -10.347   2.084 -17.022  0.00  0.00    +0.012 A 
ATOM      5  C   UNL     1      -9.990   0.741 -17.146  0.00  0.00    +0.001 A 
ATOM      6  C   UNL     1     -10.959  -0.252 -17.002  0.00  0.00    +0.000 A 
ATOM      7  C   UNL     1     -12.285   0.099 -16.734  0.00  0.00    +0.004 A 
ATOM      8  C   UNL     1     -12.640   1.447 -16.594  0.00  0.00    -0.036 A 
ATOM      9  C   UNL     1     -14.061   1.882 -16.322  0.00  0.00    +0.040 C 
ATOM     10  C   UNL     1     -14.183   3.128 -15.287  0.00  0.00    +0.043 C 
ATOM     11  C   UNL     1     -13.513   4.137 -16.172  0.00  0.00    +0.001 C 
ATOM     12  C   UNL     1     -14.162   5.286 -16.488  0.00  0.00    +0.015 C 
ENDROOT
BRANCH  12  13
ATOM     13  C   UNL     1     -15.480   5.755 -16.024  0.00  0.00    -0.021 A 
ATOM     14  C   UNL     1     -16.643   5.688 -16.797  0.00  0.00    +0.008 A 
ATOM     15  C   UNL     1     -17.862   6.140 -16.285  0.00  0.00    +0.004 A 
ATOM     16  C   UNL     1     -17.928   6.698 -15.007  0.00  0.00    +0.045 A 
ATOM     17  C   UNL     1     -16.771   6.817 -14.239  0.00  0.00    +0.121 A 
ATOM     18  C   UNL     1     -15.560   6.339 -14.751  0.00  0.00    +0.053 A 
BRANCH  17  19
ATOM     19  O   UNL     1     -16.692   7.366 -12.988  0.00  0.00    -0.495 OA
ATOM     20  C   UNL     1     -17.125   6.558 -11.903  0.00  0.00    +0.277 C 
ENDBRANCH  17  19
ENDBRANCH  12  13
TORSDOF 2
ENDMDL
MODEL 8
REMARK VINA RESULT:      -6.8      3.062      7.155
REMARK  Name = min_compound979.pdb
REMARK  3 active torsions:
REMARK  status: ('A' for Active; 'I' for Inactive)
REMARK    1  A    between atoms: _12  and  _19
REMARK    2  A    between atoms: _14  and  _18
REMARK    3  A    between atoms: _19  and  _20
REMARK                            x       y       z     vdW  Elec       q    Type
REMARK                         _______ _______ _______ _____ _____    ______ ____
ROOT
ATOM      1  C   UNL     1     -16.855   3.520 -16.741  0.00  0.00    +0.189 C 
ATOM      2  O   UNL     1     -16.893   3.811 -17.968  0.00  0.00    -0.287 OA
ATOM      3  C   UNL     1     -17.999   3.593 -15.798  0.00  0.00    +0.025 A 
ATOM      4  C   UNL     1     -19.290   3.971 -16.185  0.00  0.00    +0.012 A 
ATOM      5  C   UNL     1     -20.324   4.026 -15.249  0.00  0.00    +0.001 A 
ATOM      6  C   UNL     1     -20.072   3.709 -13.914  0.00  0.00    +0.000 A 
ATOM      7  C   UNL     1     -18.786   3.336 -13.516  0.00  0.00    +0.004 A 
ATOM      8  C   UNL     1     -17.751   3.266 -14.458  0.00  0.00    -0.036 A 
ATOM      9  C   UNL     1     -16.339   2.886 -14.078  0.00  0.00    +0.040 C 
ATOM     10  C   UNL     1     -15.592   1.944 -15.171  0.00  0.00    +0.043 C 
ATOM     11  C   UNL     1     -15.556   2.968 -16.266  0.00  0.00    +0.001 C 
ATOM     12  C   UNL     1     -14.368   3.304 -16.828  0.00  0.00    +0.015 C 
ENDROOT
BRANCH  12  13
ATOM     13  C   UNL     1     -13.031   2.747 -16.555  0.00  0.00    -0.021 A 
ATOM     14  C   UNL     1     -12.116   3.325 -15.670  0.00  0.00    +0.008 A 
ATOM     15  C   UNL     1     -10.870   2.732 -15.450  0.00  0.00    +0.004 A 
ATOM     16  C   UNL     1     -10.507   1.574 -16.141  0.00  0.00    +0.045 A 
ATOM     17  C   UNL     1     -11.387   1.009 -17.063  0.00  0.00    +0.121 A 
ATOM     18  C   UNL     1     -12.642   1.596 -17.257  0.00  0.00    +0.053 A 
BRANCH  17  19
ATOM     19  O   UNL     1     -11.147  -0.104 -17.822  0.00  0.00    -0.495 OA
ATOM     20  C   UNL     1      -9.988  -0.862 -17.503  0.00  0.00    +0.277 C 
ENDBRANCH  17  19
ENDBRANCH  12  13
TORSDOF 2
ENDMDL
MODEL 9
REMARK VINA RESULT:      -6.7      2.077      2.590
REMARK  Name = min_compound979.pdb
REMARK  3 active torsions:
REMARK  status: ('A' for Active; 'I' for Inactive)
REMARK    1  A    between atoms: _12  and  _19
REMARK    2  A    between atoms: _14  and  _18
REMARK    3  A    between atoms: _19  and  _20
REMARK                            x       y       z     vdW  Elec       q    Type
REMARK                         _______ _______ _______ _____ _____    ______ ____
ROOT
ATOM      1  C   UNL     1     -11.671   3.475 -17.216  0.00  0.00    +0.189 C 
ATOM      2  O   UNL     1     -10.933   4.424 -17.600  0.00  0.00    -0.287 OA
ATOM      3  C   UNL     1     -11.262   2.053 -17.098  0.00  0.00    +0.025 A 
ATOM      4  C   UNL     1      -9.965   1.601 -17.375  0.00  0.00    +0.012 A 
ATOM      5  C   UNL     1      -9.643   0.249 -17.250  0.00  0.00    +0.001 A 
ATOM      6  C   UNL     1     -10.620  -0.665 -16.853  0.00  0.00    +0.000 A 
ATOM      7  C   UNL     1     -11.917  -0.226 -16.580  0.00  0.00    +0.004 A 
ATOM      8  C   UNL     1     -12.237   1.133 -16.690  0.00  0.00    -0.036 A 
ATOM      9  C   UNL     1     -13.629   1.658 -16.424  0.00  0.00    +0.040 C 
ATOM     10  C   UNL     1     -13.659   3.088 -15.653  0.00  0.00    +0.043 C 
ATOM     11  C   UNL     1     -13.029   3.880 -16.760  0.00  0.00    +0.001 C 
ATOM     12  C   UNL     1     -13.676   4.964 -17.258  0.00  0.00    +0.015 C 
ENDROOT
BRANCH  12  13
ATOM     13  C   UNL     1     -14.951   5.557 -16.818  0.00  0.00    -0.021 A 
ATOM     14  C   UNL     1     -15.040   6.694 -16.010  0.00  0.00    +0.008 A 
ATOM     15  C   UNL     1     -16.286   7.209 -15.644  0.00  0.00    +0.004 A 
ATOM     16  C   UNL     1     -17.460   6.572 -16.049  0.00  0.00    +0.045 A 
ATOM     17  C   UNL     1     -17.393   5.410 -16.816  0.00  0.00    +0.121 A 
ATOM     18  C   UNL     1     -16.140   4.916 -17.199  0.00  0.00    +0.053 A 
BRANCH  17  19
ATOM     19  O   UNL     1     -18.460   4.676 -17.256  0.00  0.00    -0.495 OA
ATOM     20  C   UNL     1     -18.298   3.975 -18.482  0.00  0.00    +0.277 C 
ENDBRANCH  17  19
ENDBRANCH  12  13
TORSDOF 2
ENDMDL
