MODEL 1
REMARK VINA RESULT:      -7.8      0.000      0.000
REMARK  Name = min_compound993.pdb
REMARK  8 active torsions:
REMARK  status: ('A' for Active; 'I' for Inactive)
REMARK    1  A    between atoms: _3  and  _17
REMARK    2  A    between atoms: _4  and  _18
REMARK    3  A    between atoms: _9  and  _14
REMARK    4  A    between atoms: _11  and  _13
REMARK    5  A    between atoms: _14  and  _17
REMARK    6  A    between atoms: _18  and  _19
REMARK    7  A    between atoms: _18  and  _20
REMARK    8  A    between atoms: _18  and  _21
REMARK                            x       y       z     vdW  Elec       q    Type
REMARK                         _______ _______ _______ _____ _____    ______ ____
ROOT
ATOM      1  N   UNL     1     -14.712   2.567 -16.660  0.00  0.00    -0.216 N 
ATOM      2  H   UNL     1     -15.471   2.437 -17.330  0.00  0.00    +0.174 HD
ENDROOT
BRANCH   1   4
ATOM      3  C   UNL     1     -14.503   4.065 -14.645  0.00  0.00    +0.025 A 
ATOM      4  C   UNL     1     -15.161   3.103 -15.410  0.00  0.00    +0.048 A 
ATOM      5  C   UNL     1     -16.260   2.445 -14.843  0.00  0.00    +0.025 A 
ATOM      6  C   UNL     1     -16.703   2.754 -13.555  0.00  0.00    +0.006 A 
ATOM      7  C   UNL     1     -16.057   3.738 -12.784  0.00  0.00    -0.042 A 
ATOM      8  C   UNL     1     -14.964   4.407 -13.363  0.00  0.00    +0.006 A 
BRANCH   7   9
ATOM      9  C   UNL     1     -16.468   3.958 -11.358  0.00  0.00    -0.013 C 
ATOM     10  C   UNL     1     -16.878   4.178  -9.932  0.00  0.00    +0.015 C 
ATOM     11  C   UNL     1     -17.779   3.282 -11.631  0.00  0.00    +0.015 C 
ATOM     12  C   UNL     1     -15.157   4.634 -11.085  0.00  0.00    +0.015 C 
ENDBRANCH   7   9
ENDBRANCH   1   4
BRANCH   1  13
ATOM     13  S   UNL     1     -13.349   3.061 -17.513  0.00  0.00    +0.072 S 
ATOM     14  O   UNL     1     -12.844   4.345 -17.094  0.00  0.00    -0.150 OA
ATOM     15  O   UNL     1     -13.646   2.773 -18.901  0.00  0.00    -0.150 OA
BRANCH  13  16
ATOM     16  C   UNL     1     -12.167   1.845 -16.963  0.00  0.00    +0.109 A 
ATOM     17  C   UNL     1     -11.308   2.134 -15.902  0.00  0.00    +0.030 A 
ATOM     18  C   UNL     1     -10.358   1.187 -15.509  0.00  0.00    +0.024 A 
ATOM     19  C   UNL     1     -10.286  -0.059 -16.139  0.00  0.00    +0.025 A 
ATOM     20  C   UNL     1     -11.118  -0.311 -17.236  0.00  0.00    +0.024 A 
ATOM     21  C   UNL     1     -12.074   0.627 -17.638  0.00  0.00    +0.030 A 
BRANCH  19  22
ATOM     22  N   UNL     1      -9.244  -0.943 -15.830  0.00  0.00    -0.358 N 
ATOM     23  H   UNL     1      -8.680  -1.208 -16.631  0.00  0.00    +0.142 HD
ATOM     24  H   UNL     1      -8.674  -0.647 -15.043  0.00  0.00    +0.142 HD
ENDBRANCH  19  22
ENDBRANCH  13  16
ENDBRANCH   1  13
TORSDOF 5
ENDMDL
MODEL 2
REMARK VINA RESULT:      -7.7      2.603      7.122
REMARK  Name = min_compound993.pdb
REMARK  8 active torsions:
REMARK  status: ('A' for Active; 'I' for Inactive)
REMARK    1  A    between atoms: _3  and  _17
REMARK    2  A    between atoms: _4  and  _18
REMARK    3  A    between atoms: _9  and  _14
REMARK    4  A    between atoms: _11  and  _13
REMARK    5  A    between atoms: _14  and  _17
REMARK    6  A    between atoms: _18  and  _19
REMARK    7  A    between atoms: _18  and  _20
REMARK    8  A    between atoms: _18  and  _21
REMARK                            x       y       z     vdW  Elec       q    Type
REMARK                         _______ _______ _______ _____ _____    ______ ____
ROOT
ATOM      1  N   UNL     1     -14.370   4.219 -15.187  0.00  0.00    -0.216 N 
ATOM      2  H   UNL     1     -14.158   5.161 -15.520  0.00  0.00    +0.174 HD
ENDROOT
BRANCH   1   4
ATOM      3  C   UNL     1     -13.960   1.995 -16.297  0.00  0.00    +0.025 A 
ATOM      4  C   UNL     1     -13.536   3.220 -15.784  0.00  0.00    +0.048 A 
ATOM      5  C   UNL     1     -12.159   3.441 -15.652  0.00  0.00    +0.025 A 
ATOM      6  C   UNL     1     -11.229   2.473 -16.040  0.00  0.00    +0.006 A 
ATOM      7  C   UNL     1     -11.649   1.242 -16.578  0.00  0.00    -0.042 A 
ATOM      8  C   UNL     1     -13.031   1.031 -16.723  0.00  0.00    +0.006 A 
BRANCH   7   9
ATOM      9  C   UNL     1     -10.640   0.170 -16.863  0.00  0.00    -0.013 C 
ATOM     10  C   UNL     1      -9.631  -0.903 -17.149  0.00  0.00    +0.015 C 
ATOM     11  C   UNL     1      -9.716   1.195 -17.451  0.00  0.00    +0.015 C 
ATOM     12  C   UNL     1     -11.564  -0.856 -16.275  0.00  0.00    +0.015 C 
ENDBRANCH   7   9
ENDBRANCH   1   4
BRANCH   1  13
ATOM     13  S   UNL     1     -16.034   4.112 -14.967  0.00  0.00    +0.072 S 
ATOM     14  O   UNL     1     -16.611   2.910 -15.519  0.00  0.00    -0.150 OA
ATOM     15  O   UNL     1     -16.546   5.426 -15.298  0.00  0.00    -0.150 OA
BRANCH  13  16
ATOM     16  C   UNL     1     -16.114   3.947 -13.194  0.00  0.00    +0.109 A 
ATOM     17  C   UNL     1     -17.111   3.166 -12.608  0.00  0.00    +0.030 A 
ATOM     18  C   UNL     1     -17.186   3.079 -11.215  0.00  0.00    +0.024 A 
ATOM     19  C   UNL     1     -16.252   3.732 -10.405  0.00  0.00    +0.025 A 
ATOM     20  C   UNL     1     -15.293   4.555 -11.008  0.00  0.00    +0.024 A 
ATOM     21  C   UNL     1     -15.205   4.648 -12.400  0.00  0.00    +0.030 A 
BRANCH  19  22
ATOM     22  N   UNL     1     -16.420   3.751  -9.015  0.00  0.00    -0.358 N 
ATOM     23  H   UNL     1     -17.321   4.110  -8.715  0.00  0.00    +0.142 HD
ATOM     24  H   UNL     1     -16.189   2.872  -8.561  0.00  0.00    +0.142 HD
ENDBRANCH  19  22
ENDBRANCH  13  16
ENDBRANCH   1  13
TORSDOF 5
ENDMDL
MODEL 3
REMARK VINA RESULT:      -7.5      3.838      6.442
REMARK  Name = min_compound993.pdb
REMARK  8 active torsions:
REMARK  status: ('A' for Active; 'I' for Inactive)
REMARK    1  A    between atoms: _3  and  _17
REMARK    2  A    between atoms: _4  and  _18
REMARK    3  A    between atoms: _9  and  _14
REMARK    4  A    between atoms: _11  and  _13
REMARK    5  A    between atoms: _14  and  _17
REMARK    6  A    between atoms: _18  and  _19
REMARK    7  A    between atoms: _18  and  _20
REMARK    8  A    between atoms: _18  and  _21
REMARK                            x       y       z     vdW  Elec       q    Type
REMARK                         _______ _______ _______ _____ _____    ______ ____
ROOT
ATOM      1  N   UNL     1     -14.178   4.406 -15.425  0.00  0.00    -0.216 N 
ATOM      2  H   UNL     1     -13.735   4.889 -14.642  0.00  0.00    +0.174 HD
ENDROOT
BRANCH   1   4
ATOM      3  C   UNL     1     -13.825   2.188 -16.566  0.00  0.00    +0.025 A 
ATOM      4  C   UNL     1     -13.364   3.357 -15.962  0.00  0.00    +0.048 A 
ATOM      5  C   UNL     1     -11.998   3.457 -15.669  0.00  0.00    +0.025 A 
ATOM      6  C   UNL     1     -11.112   2.425 -15.987  0.00  0.00    +0.006 A 
ATOM      7  C   UNL     1     -11.566   1.251 -16.615  0.00  0.00    -0.042 A 
ATOM      8  C   UNL     1     -12.935   1.161 -16.922  0.00  0.00    +0.006 A 
BRANCH   7   9
ATOM      9  C   UNL     1     -10.621   0.105 -16.827  0.00  0.00    -0.013 C 
ATOM     10  C   UNL     1      -9.676  -1.040 -17.039  0.00  0.00    +0.015 C 
ATOM     11  C   UNL     1      -9.633   1.038 -17.462  0.00  0.00    +0.015 C 
ATOM     12  C   UNL     1     -11.609  -0.828 -16.192  0.00  0.00    +0.015 C 
ENDBRANCH   7   9
ENDBRANCH   1   4
BRANCH   1  13
ATOM     13  S   UNL     1     -15.034   5.547 -16.317  0.00  0.00    +0.072 S 
ATOM     14  O   UNL     1     -15.208   6.802 -15.629  0.00  0.00    -0.150 OA
ATOM     15  O   UNL     1     -16.155   4.823 -16.881  0.00  0.00    -0.150 OA
BRANCH  13  16
ATOM     16  C   UNL     1     -13.881   5.848 -17.642  0.00  0.00    +0.109 A 
ATOM     17  C   UNL     1     -12.823   6.740 -17.460  0.00  0.00    +0.030 A 
ATOM     18  C   UNL     1     -11.951   6.998 -18.522  0.00  0.00    +0.024 A 
ATOM     19  C   UNL     1     -12.103   6.345 -19.749  0.00  0.00    +0.025 A 
ATOM     20  C   UNL     1     -13.201   5.496 -19.931  0.00  0.00    +0.024 A 
ATOM     21  C   UNL     1     -14.079   5.227 -18.876  0.00  0.00    +0.030 A 
BRANCH  19  22
ATOM     22  N   UNL     1     -11.311   6.714 -20.843  0.00  0.00    -0.358 N 
ATOM     23  H   UNL     1     -10.403   6.259 -20.864  0.00  0.00    +0.142 HD
ATOM     24  H   UNL     1     -11.789   6.652 -21.737  0.00  0.00    +0.142 HD
ENDBRANCH  19  22
ENDBRANCH  13  16
ENDBRANCH   1  13
TORSDOF 5
ENDMDL
MODEL 4
REMARK VINA RESULT:      -7.4      5.831      8.255
REMARK  Name = min_compound993.pdb
REMARK  8 active torsions:
REMARK  status: ('A' for Active; 'I' for Inactive)
REMARK    1  A    between atoms: _3  and  _17
REMARK    2  A    between atoms: _4  and  _18
REMARK    3  A    between atoms: _9  and  _14
REMARK    4  A    between atoms: _11  and  _13
REMARK    5  A    between atoms: _14  and  _17
REMARK    6  A    between atoms: _18  and  _19
REMARK    7  A    between atoms: _18  and  _20
REMARK    8  A    between atoms: _18  and  _21
REMARK                            x       y       z     vdW  Elec       q    Type
REMARK                         _______ _______ _______ _____ _____    ______ ____
ROOT
ATOM      1  N   UNL     1     -17.344   1.969  -8.886  0.00  0.00    -0.216 N 
ATOM      2  H   UNL     1     -18.079   1.261  -8.846  0.00  0.00    +0.174 HD
ENDROOT
BRANCH   1   4
ATOM      3  C   UNL     1     -15.080   1.447  -7.911  0.00  0.00    +0.025 A 
ATOM      4  C   UNL     1     -16.408   1.858  -7.807  0.00  0.00    +0.048 A 
ATOM      5  C   UNL     1     -16.959   1.999  -6.527  0.00  0.00    +0.025 A 
ATOM      6  C   UNL     1     -16.200   1.755  -5.381  0.00  0.00    +0.006 A 
ATOM      7  C   UNL     1     -14.853   1.360  -5.476  0.00  0.00    -0.042 A 
ATOM      8  C   UNL     1     -14.299   1.235  -6.762  0.00  0.00    +0.006 A 
BRANCH   7   9
ATOM      9  C   UNL     1     -14.098   0.976  -4.238  0.00  0.00    -0.013 C 
ATOM     10  C   UNL     1     -13.343   0.593  -3.000  0.00  0.00    +0.015 C 
ATOM     11  C   UNL     1     -14.081   2.412  -3.804  0.00  0.00    +0.015 C 
ATOM     12  C   UNL     1     -14.115  -0.459  -4.673  0.00  0.00    +0.015 C 
ENDBRANCH   7   9
ENDBRANCH   1   4
BRANCH   1  13
ATOM     13  S   UNL     1     -18.031   3.395  -9.454  0.00  0.00    +0.072 S 
ATOM     14  O   UNL     1     -17.819   4.523  -8.580  0.00  0.00    -0.150 OA
ATOM     15  O   UNL     1     -19.353   3.023  -9.914  0.00  0.00    -0.150 OA
BRANCH  13  16
ATOM     16  C   UNL     1     -17.030   3.680 -10.901  0.00  0.00    +0.109 A 
ATOM     17  C   UNL     1     -17.386   3.106 -12.122  0.00  0.00    +0.030 A 
ATOM     18  C   UNL     1     -16.569   3.304 -13.239  0.00  0.00    +0.024 A 
ATOM     19  C   UNL     1     -15.422   4.101 -13.156  0.00  0.00    +0.025 A 
ATOM     20  C   UNL     1     -15.051   4.622 -11.912  0.00  0.00    +0.024 A 
ATOM     21  C   UNL     1     -15.861   4.435 -10.787  0.00  0.00    +0.030 A 
BRANCH  19  22
ATOM     22  N   UNL     1     -14.541   4.178 -14.242  0.00  0.00    -0.358 N 
ATOM     23  H   UNL     1     -13.771   4.824 -14.099  0.00  0.00    +0.142 HD
ATOM     24  H   UNL     1     -14.224   3.274 -14.580  0.00  0.00    +0.142 HD
ENDBRANCH  19  22
ENDBRANCH  13  16
ENDBRANCH   1  13
TORSDOF 5
ENDMDL
MODEL 5
REMARK VINA RESULT:      -7.4      1.347      2.040
REMARK  Name = min_compound993.pdb
REMARK  8 active torsions:
REMARK  status: ('A' for Active; 'I' for Inactive)
REMARK    1  A    between atoms: _3  and  _17
REMARK    2  A    between atoms: _4  and  _18
REMARK    3  A    between atoms: _9  and  _14
REMARK    4  A    between atoms: _11  and  _13
REMARK    5  A    between atoms: _14  and  _17
REMARK    6  A    between atoms: _18  and  _19
REMARK    7  A    between atoms: _18  and  _20
REMARK    8  A    between atoms: _18  and  _21
REMARK                            x       y       z     vdW  Elec       q    Type
REMARK                         _______ _______ _______ _____ _____    ______ ____
ROOT
ATOM      1  N   UNL     1     -15.327   3.419 -17.923  0.00  0.00    -0.216 N 
ATOM      2  H   UNL     1     -16.082   3.680 -18.559  0.00  0.00    +0.174 HD
ENDROOT
BRANCH   1   4
ATOM      3  C   UNL     1     -15.503   4.956 -15.934  0.00  0.00    +0.025 A 
ATOM      4  C   UNL     1     -15.628   3.713 -16.554  0.00  0.00    +0.048 A 
ATOM      5  C   UNL     1     -15.888   2.596 -15.750  0.00  0.00    +0.025 A 
ATOM      6  C   UNL     1     -16.037   2.718 -14.367  0.00  0.00    +0.006 A 
ATOM      7  C   UNL     1     -15.931   3.971 -13.736  0.00  0.00    -0.042 A 
ATOM      8  C   UNL     1     -15.687   5.092 -14.548  0.00  0.00    +0.006 A 
BRANCH   7   9
ATOM      9  C   UNL     1     -15.963   4.057 -12.238  0.00  0.00    -0.013 C 
ATOM     10  C   UNL     1     -15.995   4.144 -10.741  0.00  0.00    +0.015 C 
ATOM     11  C   UNL     1     -14.839   5.050 -12.272  0.00  0.00    +0.015 C 
ATOM     12  C   UNL     1     -17.087   3.065 -12.205  0.00  0.00    +0.015 C 
ENDBRANCH   7   9
ENDBRANCH   1   4
BRANCH   1  13
ATOM     13  S   UNL     1     -13.868   3.729 -18.700  0.00  0.00    +0.072 S 
ATOM     14  O   UNL     1     -13.521   5.128 -18.735  0.00  0.00    -0.150 OA
ATOM     15  O   UNL     1     -13.899   2.920 -19.901  0.00  0.00    -0.150 OA
BRANCH  13  16
ATOM     16  C   UNL     1     -12.730   2.951 -17.570  0.00  0.00    +0.109 A 
ATOM     17  C   UNL     1     -12.585   1.563 -17.568  0.00  0.00    +0.030 A 
ATOM     18  C   UNL     1     -11.720   0.964 -16.647  0.00  0.00    +0.024 A 
ATOM     19  C   UNL     1     -10.970   1.740 -15.757  0.00  0.00    +0.025 A 
ATOM     20  C   UNL     1     -11.170   3.126 -15.737  0.00  0.00    +0.024 A 
ATOM     21  C   UNL     1     -12.030   3.738 -16.654  0.00  0.00    +0.030 A 
BRANCH  19  22
ATOM     22  N   UNL     1     -10.215   1.124 -14.752  0.00  0.00    -0.358 N 
ATOM     23  H   UNL     1      -9.757   0.268 -15.050  0.00  0.00    +0.142 HD
ATOM     24  H   UNL     1      -9.577   1.752 -14.274  0.00  0.00    +0.142 HD
ENDBRANCH  19  22
ENDBRANCH  13  16
ENDBRANCH   1  13
TORSDOF 5
ENDMDL
MODEL 6
REMARK VINA RESULT:      -7.2      3.412      7.617
REMARK  Name = min_compound993.pdb
REMARK  8 active torsions:
REMARK  status: ('A' for Active; 'I' for Inactive)
REMARK    1  A    between atoms: _3  and  _17
REMARK    2  A    between atoms: _4  and  _18
REMARK    3  A    between atoms: _9  and  _14
REMARK    4  A    between atoms: _11  and  _13
REMARK    5  A    between atoms: _14  and  _17
REMARK    6  A    between atoms: _18  and  _19
REMARK    7  A    between atoms: _18  and  _20
REMARK    8  A    between atoms: _18  and  _21
REMARK                            x       y       z     vdW  Elec       q    Type
REMARK                         _______ _______ _______ _____ _____    ______ ____
ROOT
ATOM      1  N   UNL     1     -13.891   4.626 -16.479  0.00  0.00    -0.216 N 
ATOM      2  H   UNL     1     -14.152   5.149 -17.315  0.00  0.00    +0.174 HD
ENDROOT
BRANCH   1   4
ATOM      3  C   UNL     1     -13.305   2.476 -17.653  0.00  0.00    +0.025 A 
ATOM      4  C   UNL     1     -13.034   3.515 -16.764  0.00  0.00    +0.048 A 
ATOM      5  C   UNL     1     -11.922   3.391 -15.921  0.00  0.00    +0.025 A 
ATOM      6  C   UNL     1     -11.092   2.270 -15.978  0.00  0.00    +0.006 A 
ATOM      7  C   UNL     1     -11.347   1.226 -16.886  0.00  0.00    -0.042 A 
ATOM      8  C   UNL     1     -12.455   1.362 -17.741  0.00  0.00    +0.006 A 
BRANCH   7   9
ATOM      9  C   UNL     1     -10.520  -0.025 -16.837  0.00  0.00    -0.013 C 
ATOM     10  C   UNL     1      -9.694  -1.275 -16.788  0.00  0.00    +0.015 C 
ATOM     11  C   UNL     1      -9.355   0.722 -17.416  0.00  0.00    +0.015 C 
ATOM     12  C   UNL     1     -11.685  -0.771 -16.258  0.00  0.00    +0.015 C 
ENDBRANCH   7   9
ENDBRANCH   1   4
BRANCH   1  13
ATOM     13  S   UNL     1     -15.219   4.609 -15.446  0.00  0.00    +0.072 S 
ATOM     14  O   UNL     1     -14.915   4.111 -14.127  0.00  0.00    -0.150 OA
ATOM     15  O   UNL     1     -16.306   4.067 -16.235  0.00  0.00    -0.150 OA
BRANCH  13  16
ATOM     16  C   UNL     1     -15.514   6.358 -15.273  0.00  0.00    +0.109 A 
ATOM     17  C   UNL     1     -15.029   7.248 -16.231  0.00  0.00    +0.030 A 
ATOM     18  C   UNL     1     -15.232   8.621 -16.061  0.00  0.00    +0.024 A 
ATOM     19  C   UNL     1     -15.950   9.108 -14.963  0.00  0.00    +0.025 A 
ATOM     20  C   UNL     1     -16.382   8.206 -13.985  0.00  0.00    +0.024 A 
ATOM     21  C   UNL     1     -16.187   6.830 -14.145  0.00  0.00    +0.030 A 
BRANCH  19  22
ATOM     22  N   UNL     1     -16.027  10.487 -14.732  0.00  0.00    -0.358 N 
ATOM     23  H   UNL     1     -16.582  10.735 -13.919  0.00  0.00    +0.142 HD
ATOM     24  H   UNL     1     -15.127  10.956 -14.738  0.00  0.00    +0.142 HD
ENDBRANCH  19  22
ENDBRANCH  13  16
ENDBRANCH   1  13
TORSDOF 5
ENDMDL
MODEL 7
REMARK VINA RESULT:      -7.2      4.014      7.755
REMARK  Name = min_compound993.pdb
REMARK  8 active torsions:
REMARK  status: ('A' for Active; 'I' for Inactive)
REMARK    1  A    between atoms: _3  and  _17
REMARK    2  A    between atoms: _4  and  _18
REMARK    3  A    between atoms: _9  and  _14
REMARK    4  A    between atoms: _11  and  _13
REMARK    5  A    between atoms: _14  and  _17
REMARK    6  A    between atoms: _18  and  _19
REMARK    7  A    between atoms: _18  and  _20
REMARK    8  A    between atoms: _18  and  _21
REMARK                            x       y       z     vdW  Elec       q    Type
REMARK                         _______ _______ _______ _____ _____    ______ ____
ROOT
ATOM      1  N   UNL     1     -14.421   5.233 -16.906  0.00  0.00    -0.216 N 
ATOM      2  H   UNL     1     -14.786   5.580 -16.019  0.00  0.00    +0.174 HD
ENDROOT
BRANCH   1   4
ATOM      3  C   UNL     1     -12.813   3.707 -15.709  0.00  0.00    +0.025 A 
ATOM      4  C   UNL     1     -13.671   4.022 -16.762  0.00  0.00    +0.048 A 
ATOM      5  C   UNL     1     -13.676   3.183 -17.884  0.00  0.00    +0.025 A 
ATOM      6  C   UNL     1     -12.861   2.051 -17.946  0.00  0.00    +0.006 A 
ATOM      7  C   UNL     1     -12.007   1.716 -16.880  0.00  0.00    -0.042 A 
ATOM      8  C   UNL     1     -12.016   2.551 -15.749  0.00  0.00    +0.006 A 
BRANCH   7   9
ATOM      9  C   UNL     1     -11.046   0.573 -17.024  0.00  0.00    -0.013 C 
ATOM     10  C   UNL     1     -10.085  -0.570 -17.168  0.00  0.00    +0.015 C 
ATOM     11  C   UNL     1      -9.977   1.528 -17.467  0.00  0.00    +0.015 C 
ATOM     12  C   UNL     1     -12.115  -0.381 -16.580  0.00  0.00    +0.015 C 
ENDBRANCH   7   9
ENDBRANCH   1   4
BRANCH   1  13
ATOM     13  S   UNL     1     -13.979   6.562 -17.838  0.00  0.00    +0.072 S 
ATOM     14  O   UNL     1     -14.421   6.476 -19.208  0.00  0.00    -0.150 OA
ATOM     15  O   UNL     1     -12.596   6.821 -17.496  0.00  0.00    -0.150 OA
BRANCH  13  16
ATOM     16  C   UNL     1     -14.960   7.836 -17.067  0.00  0.00    +0.109 A 
ATOM     17  C   UNL     1     -15.614   8.786 -17.851  0.00  0.00    +0.030 A 
ATOM     18  C   UNL     1     -16.346   9.803 -17.231  0.00  0.00    +0.024 A 
ATOM     19  C   UNL     1     -16.462   9.856 -15.838  0.00  0.00    +0.025 A 
ATOM     20  C   UNL     1     -15.754   8.928 -15.066  0.00  0.00    +0.024 A 
ATOM     21  C   UNL     1     -15.021   7.903 -15.674  0.00  0.00    +0.030 A 
BRANCH  19  22
ATOM     22  N   UNL     1     -17.079  10.954 -15.226  0.00  0.00    -0.358 N 
ATOM     23  H   UNL     1     -16.604  11.278 -14.390  0.00  0.00    +0.142 HD
ATOM     24  H   UNL     1     -17.290  11.715 -15.864  0.00  0.00    +0.142 HD
ENDBRANCH  19  22
ENDBRANCH  13  16
ENDBRANCH   1  13
TORSDOF 5
ENDMDL
MODEL 8
REMARK VINA RESULT:      -7.1      5.644      8.207
REMARK  Name = min_compound993.pdb
REMARK  8 active torsions:
REMARK  status: ('A' for Active; 'I' for Inactive)
REMARK    1  A    between atoms: _3  and  _17
REMARK    2  A    between atoms: _4  and  _18
REMARK    3  A    between atoms: _9  and  _14
REMARK    4  A    between atoms: _11  and  _13
REMARK    5  A    between atoms: _14  and  _17
REMARK    6  A    between atoms: _18  and  _19
REMARK    7  A    between atoms: _18  and  _20
REMARK    8  A    between atoms: _18  and  _21
REMARK                            x       y       z     vdW  Elec       q    Type
REMARK                         _______ _______ _______ _____ _____    ______ ____
ROOT
ATOM      1  N   UNL     1     -16.358   3.920  -9.141  0.00  0.00    -0.216 N 
ATOM      2  H   UNL     1     -16.111   4.853  -8.810  0.00  0.00    +0.174 HD
ENDROOT
BRANCH   1   4
ATOM      3  C   UNL     1     -17.219   2.974 -11.312  0.00  0.00    +0.025 A 
ATOM      4  C   UNL     1     -16.409   3.833 -10.570  0.00  0.00    +0.048 A 
ATOM      5  C   UNL     1     -15.412   4.549 -11.243  0.00  0.00    +0.025 A 
ATOM      6  C   UNL     1     -15.240   4.427 -12.624  0.00  0.00    +0.006 A 
ATOM      7  C   UNL     1     -16.066   3.578 -13.383  0.00  0.00    -0.042 A 
ATOM      8  C   UNL     1     -17.076   2.873 -12.706  0.00  0.00    +0.006 A 
BRANCH   7   9
ATOM      9  C   UNL     1     -15.778   3.363 -14.840  0.00  0.00    -0.013 C 
ATOM     10  C   UNL     1     -15.489   3.148 -16.296  0.00  0.00    +0.015 C 
ATOM     11  C   UNL     1     -17.119   2.714 -15.009  0.00  0.00    +0.015 C 
ATOM     12  C   UNL     1     -14.436   4.012 -14.670  0.00  0.00    +0.015 C 
ENDBRANCH   7   9
ENDBRANCH   1   4
BRANCH   1  13
ATOM     13  S   UNL     1     -17.486   3.276  -8.072  0.00  0.00    +0.072 S 
ATOM     14  O   UNL     1     -18.702   2.840  -8.714  0.00  0.00    -0.150 OA
ATOM     15  O   UNL     1     -17.502   4.185  -6.945  0.00  0.00    -0.150 OA
BRANCH  13  16
ATOM     16  C   UNL     1     -16.630   1.802  -7.550  0.00  0.00    +0.109 A 
ATOM     17  C   UNL     1     -16.824   0.601  -8.233  0.00  0.00    +0.030 A 
ATOM     18  C   UNL     1     -16.178  -0.555  -7.787  0.00  0.00    +0.024 A 
ATOM     19  C   UNL     1     -15.311  -0.514  -6.690  0.00  0.00    +0.025 A 
ATOM     20  C   UNL     1     -15.172   0.686  -5.984  0.00  0.00    +0.024 A 
ATOM     21  C   UNL     1     -15.810   1.851  -6.422  0.00  0.00    +0.030 A 
BRANCH  19  22
ATOM     22  N   UNL     1     -14.781  -1.701  -6.170  0.00  0.00    -0.358 N 
ATOM     23  H   UNL     1     -15.206  -1.992  -5.296  0.00  0.00    +0.142 HD
ATOM     24  H   UNL     1     -14.733  -2.460  -6.843  0.00  0.00    +0.142 HD
ENDBRANCH  19  22
ENDBRANCH  13  16
ENDBRANCH   1  13
TORSDOF 5
ENDMDL
MODEL 9
REMARK VINA RESULT:      -6.8      4.898      7.119
REMARK  Name = min_compound993.pdb
REMARK  8 active torsions:
REMARK  status: ('A' for Active; 'I' for Inactive)
REMARK    1  A    between atoms: _3  and  _17
REMARK    2  A    between atoms: _4  and  _18
REMARK    3  A    between atoms: _9  and  _14
REMARK    4  A    between atoms: _11  and  _13
REMARK    5  A    between atoms: _14  and  _17
REMARK    6  A    between atoms: _18  and  _19
REMARK    7  A    between atoms: _18  and  _20
REMARK    8  A    between atoms: _18  and  _21
REMARK                            x       y       z     vdW  Elec       q    Type
REMARK                         _______ _______ _______ _____ _____    ______ ____
ROOT
ATOM      1  N   UNL     1     -12.087   5.943 -17.368  0.00  0.00    -0.216 N 
ATOM      2  H   UNL     1     -11.272   6.519 -17.583  0.00  0.00    +0.174 HD
ENDROOT
BRANCH   1   4
ATOM      3  C   UNL     1     -12.446   3.566 -18.122  0.00  0.00    +0.025 A 
ATOM      4  C   UNL     1     -11.791   4.541 -17.371  0.00  0.00    +0.048 A 
ATOM      5  C   UNL     1     -10.890   4.122 -16.384  0.00  0.00    +0.025 A 
ATOM      6  C   UNL     1     -10.634   2.767 -16.165  0.00  0.00    +0.006 A 
ATOM      7  C   UNL     1     -11.276   1.777 -16.932  0.00  0.00    -0.042 A 
ATOM      8  C   UNL     1     -12.168   2.202 -17.932  0.00  0.00    +0.006 A 
BRANCH   7   9
ATOM      9  C   UNL     1     -11.086   0.329 -16.590  0.00  0.00    -0.013 C 
ATOM     10  C   UNL     1     -10.896  -1.120 -16.249  0.00  0.00    +0.015 C 
ATOM     11  C   UNL     1      -9.598   0.510 -16.646  0.00  0.00    +0.015 C 
ATOM     12  C   UNL     1     -12.574   0.147 -16.535  0.00  0.00    +0.015 C 
ENDBRANCH   7   9
ENDBRANCH   1   4
BRANCH   1  13
ATOM     13  S   UNL     1     -13.432   6.669 -18.069  0.00  0.00    +0.072 S 
ATOM     14  O   UNL     1     -13.603   8.050 -17.687  0.00  0.00    -0.150 OA
ATOM     15  O   UNL     1     -14.500   5.701 -17.931  0.00  0.00    -0.150 OA
BRANCH  13  16
ATOM     16  C   UNL     1     -12.940   6.672 -19.782  0.00  0.00    +0.109 A 
ATOM     17  C   UNL     1     -13.810   6.190 -20.760  0.00  0.00    +0.030 A 
ATOM     18  C   UNL     1     -13.395   6.160 -22.095  0.00  0.00    +0.024 A 
ATOM     19  C   UNL     1     -12.135   6.644 -22.465  0.00  0.00    +0.025 A 
ATOM     20  C   UNL     1     -11.256   7.073 -21.464  0.00  0.00    +0.024 A 
ATOM     21  C   UNL     1     -11.660   7.110 -20.126  0.00  0.00    +0.030 A 
BRANCH  19  22
ATOM     22  N   UNL     1     -11.680   6.482 -23.779  0.00  0.00    -0.358 N 
ATOM     23  H   UNL     1     -10.989   7.170 -24.061  0.00  0.00    +0.142 HD
ATOM     24  H   UNL     1     -11.386   5.535 -23.998  0.00  0.00    +0.142 HD
ENDBRANCH  19  22
ENDBRANCH  13  16
ENDBRANCH   1  13
TORSDOF 5
ENDMDL
