MODEL 1
REMARK VINA RESULT:      -7.6      0.000      0.000
REMARK  Name = min_compound996.pdb
REMARK  5 active torsions:
REMARK  status: ('A' for Active; 'I' for Inactive)
REMARK    1  A    between atoms: _2  and  _9
REMARK    2  A    between atoms: _2  and  _19
REMARK    3  A    between atoms: _10  and  _19
REMARK    4  A    between atoms: _19  and  _20
REMARK    5  A    between atoms: _19  and  _21
REMARK                            x       y       z     vdW  Elec       q    Type
REMARK                         _______ _______ _______ _____ _____    ______ ____
ROOT
ATOM      1  S   UNL     1     -14.695   2.728 -16.455  0.00  0.00    -0.013 S 
ENDROOT
BRANCH   1   2
ATOM      2  C   UNL     1     -12.937   2.849 -16.284  0.00  0.00    +0.124 A 
ATOM      3  C   UNL     1     -12.177   1.682 -16.327  0.00  0.00    +0.097 A 
ATOM      4  C   UNL     1     -10.778   1.830 -16.177  0.00  0.00    +0.002 A 
ATOM      5  C   UNL     1     -10.200   3.099 -15.994  0.00  0.00    +0.010 A 
ATOM      6  C   UNL     1     -10.993   4.242 -15.956  0.00  0.00    +0.003 A 
ATOM      7  C   UNL     1      -9.974   0.683 -16.219  0.00  0.00    +0.011 A 
ATOM      8  C   UNL     1     -10.549  -0.566 -16.407  0.00  0.00    +0.020 A 
ATOM      9  C   UNL     1     -11.918  -0.626 -16.545  0.00  0.00    +0.111 A 
ATOM     10  N   UNL     1     -12.724   0.458 -16.504  0.00  0.00    -0.253 NA
ATOM     11  C   UNL     1     -12.367   4.121 -16.101  0.00  0.00    +0.030 A 
ENDBRANCH   1   2
BRANCH   1  12
ATOM     12  O   UNL     1     -15.092   1.483 -15.823  0.00  0.00    -0.263 OA
ATOM     13  H   UNL     1     -15.513   1.673 -14.971  0.00  0.00    +0.244 HD
ENDBRANCH   1  12
BRANCH   1  14
ATOM     14  O   UNL     1     -14.988   2.948 -17.864  0.00  0.00    -0.263 OA
ATOM     15  H   UNL     1     -14.240   2.643 -18.401  0.00  0.00    +0.244 HD
ENDBRANCH   1  14
BRANCH   1  16
ATOM     16  O   UNL     1     -15.293   4.009 -15.635  0.00  0.00    -0.363 OA
BRANCH  16  21
ATOM     17 CL   UNL     1     -16.929   3.573 -10.016  0.00  0.00    -0.084 Cl
ATOM     18  C   UNL     1     -16.464   3.686 -11.669  0.00  0.00    +0.041 A 
ATOM     19  C   UNL     1     -17.210   3.025 -12.645  0.00  0.00    +0.023 A 
ATOM     20  C   UNL     1     -16.834   3.114 -13.988  0.00  0.00    +0.050 A 
ATOM     21  C   UNL     1     -15.706   3.855 -14.340  0.00  0.00    +0.155 A 
ATOM     22  C   UNL     1     -14.975   4.534 -13.364  0.00  0.00    +0.050 A 
ATOM     23  C   UNL     1     -15.349   4.443 -12.023  0.00  0.00    +0.023 A 
ENDBRANCH  16  21
ENDBRANCH   1  16
TORSDOF 5
ENDMDL
MODEL 2
REMARK VINA RESULT:      -7.4      1.918      2.448
REMARK  Name = min_compound996.pdb
REMARK  5 active torsions:
REMARK  status: ('A' for Active; 'I' for Inactive)
REMARK    1  A    between atoms: _2  and  _9
REMARK    2  A    between atoms: _2  and  _19
REMARK    3  A    between atoms: _10  and  _19
REMARK    4  A    between atoms: _19  and  _20
REMARK    5  A    between atoms: _19  and  _21
REMARK                            x       y       z     vdW  Elec       q    Type
REMARK                         _______ _______ _______ _____ _____    ______ ____
ROOT
ATOM      1  S   UNL     1     -13.513   3.224 -18.869  0.00  0.00    -0.013 S 
ENDROOT
BRANCH   1   2
ATOM      2  C   UNL     1     -12.190   3.285 -17.694  0.00  0.00    +0.124 A 
ATOM      3  C   UNL     1     -11.715   2.090 -17.156  0.00  0.00    +0.097 A 
ATOM      4  C   UNL     1     -10.663   2.192 -16.215  0.00  0.00    +0.002 A 
ATOM      5  C   UNL     1     -10.136   3.445 -15.852  0.00  0.00    +0.010 A 
ATOM      6  C   UNL     1     -10.637   4.616 -16.411  0.00  0.00    +0.003 A 
ATOM      7  C   UNL     1     -10.151   1.016 -15.651  0.00  0.00    +0.011 A 
ATOM      8  C   UNL     1     -10.672  -0.217 -16.018  0.00  0.00    +0.020 A 
ATOM      9  C   UNL     1     -11.694  -0.233 -16.941  0.00  0.00    +0.111 A 
ATOM     10  N   UNL     1     -12.216   0.882 -17.500  0.00  0.00    -0.253 NA
ATOM     11  C   UNL     1     -11.668   4.541 -17.336  0.00  0.00    +0.030 A 
ENDBRANCH   1   2
BRANCH   1  12
ATOM     12  O   UNL     1     -13.277   2.061 -19.705  0.00  0.00    -0.263 OA
ATOM     13  H   UNL     1     -14.052   1.904 -20.265  0.00  0.00    +0.244 HD
ENDBRANCH   1  12
BRANCH   1  14
ATOM     14  O   UNL     1     -13.587   4.546 -19.475  0.00  0.00    -0.263 OA
ATOM     15  H   UNL     1     -14.075   5.143 -18.887  0.00  0.00    +0.244 HD
ENDBRANCH   1  14
BRANCH   1  16
ATOM     16  O   UNL     1     -14.867   3.030 -17.976  0.00  0.00    -0.363 OA
BRANCH  16  21
ATOM     17 CL   UNL     1     -15.570   6.032 -12.983  0.00  0.00    -0.084 Cl
ATOM     18  C   UNL     1     -15.357   5.135 -14.435  0.00  0.00    +0.041 A 
ATOM     19  C   UNL     1     -14.995   3.789 -14.371  0.00  0.00    +0.023 A 
ATOM     20  C   UNL     1     -14.820   3.058 -15.549  0.00  0.00    +0.050 A 
ATOM     21  C   UNL     1     -14.996   3.686 -16.782  0.00  0.00    +0.155 A 
ATOM     22  C   UNL     1     -15.380   5.027 -16.844  0.00  0.00    +0.050 A 
ATOM     23  C   UNL     1     -15.553   5.757 -15.667  0.00  0.00    +0.023 A 
ENDBRANCH  16  21
ENDBRANCH   1  16
TORSDOF 5
ENDMDL
MODEL 3
REMARK VINA RESULT:      -7.3      4.234      6.199
REMARK  Name = min_compound996.pdb
REMARK  5 active torsions:
REMARK  status: ('A' for Active; 'I' for Inactive)
REMARK    1  A    between atoms: _2  and  _9
REMARK    2  A    between atoms: _2  and  _19
REMARK    3  A    between atoms: _10  and  _19
REMARK    4  A    between atoms: _19  and  _20
REMARK    5  A    between atoms: _19  and  _21
REMARK                            x       y       z     vdW  Elec       q    Type
REMARK                         _______ _______ _______ _____ _____    ______ ____
ROOT
ATOM      1  S   UNL     1     -13.827   3.068 -18.624  0.00  0.00    -0.013 S 
ENDROOT
BRANCH   1   2
ATOM      2  C   UNL     1     -13.065   4.660 -18.771  0.00  0.00    +0.124 A 
ATOM      3  C   UNL     1     -12.862   5.192 -20.043  0.00  0.00    +0.097 A 
ATOM      4  C   UNL     1     -12.242   6.461 -20.109  0.00  0.00    +0.002 A 
ATOM      5  C   UNL     1     -11.856   7.140 -18.938  0.00  0.00    +0.010 A 
ATOM      6  C   UNL     1     -12.075   6.576 -17.685  0.00  0.00    +0.003 A 
ATOM      7  C   UNL     1     -12.022   7.036 -21.367  0.00  0.00    +0.011 A 
ATOM      8  C   UNL     1     -12.411   6.365 -22.518  0.00  0.00    +0.020 A 
ATOM      9  C   UNL     1     -13.009   5.133 -22.371  0.00  0.00    +0.111 A 
ATOM     10  N   UNL     1     -13.231   4.547 -21.174  0.00  0.00    -0.253 NA
ATOM     11  C   UNL     1     -12.682   5.332 -17.597  0.00  0.00    +0.030 A 
ENDBRANCH   1   2
BRANCH   1  12
ATOM     12  O   UNL     1     -13.108   2.177 -19.517  0.00  0.00    -0.263 OA
ATOM     13  H   UNL     1     -13.738   1.596 -19.968  0.00  0.00    +0.244 HD
ENDBRANCH   1  12
BRANCH   1  14
ATOM     14  O   UNL     1     -15.255   3.277 -18.807  0.00  0.00    -0.263 OA
ATOM     15  H   UNL     1     -15.692   2.421 -18.940  0.00  0.00    +0.244 HD
ENDBRANCH   1  14
BRANCH   1  16
ATOM     16  O   UNL     1     -13.602   2.631 -17.066  0.00  0.00    -0.363 OA
BRANCH  16  21
ATOM     17 CL   UNL     1      -9.329  -1.180 -15.779  0.00  0.00    -0.084 Cl
ATOM     18  C   UNL     1     -10.569  -0.046 -16.150  0.00  0.00    +0.041 A 
ATOM     19  C   UNL     1     -10.290   1.320 -16.118  0.00  0.00    +0.023 A 
ATOM     20  C   UNL     1     -11.296   2.243 -16.418  0.00  0.00    +0.050 A 
ATOM     21  C   UNL     1     -12.575   1.788 -16.736  0.00  0.00    +0.155 A 
ATOM     22  C   UNL     1     -12.846   0.421 -16.790  0.00  0.00    +0.050 A 
ATOM     23  C   UNL     1     -11.843  -0.501 -16.488  0.00  0.00    +0.023 A 
ENDBRANCH  16  21
ENDBRANCH   1  16
TORSDOF 5
ENDMDL
MODEL 4
REMARK VINA RESULT:      -7.0      1.956      3.331
REMARK  Name = min_compound996.pdb
REMARK  5 active torsions:
REMARK  status: ('A' for Active; 'I' for Inactive)
REMARK    1  A    between atoms: _2  and  _9
REMARK    2  A    between atoms: _2  and  _19
REMARK    3  A    between atoms: _10  and  _19
REMARK    4  A    between atoms: _19  and  _20
REMARK    5  A    between atoms: _19  and  _21
REMARK                            x       y       z     vdW  Elec       q    Type
REMARK                         _______ _______ _______ _____ _____    ______ ____
ROOT
ATOM      1  S   UNL     1     -15.273   3.139 -16.403  0.00  0.00    -0.013 S 
ENDROOT
BRANCH   1   2
ATOM      2  C   UNL     1     -13.585   3.673 -16.425  0.00  0.00    +0.124 A 
ATOM      3  C   UNL     1     -13.263   4.852 -17.095  0.00  0.00    +0.097 A 
ATOM      4  C   UNL     1     -11.901   5.232 -17.092  0.00  0.00    +0.002 A 
ATOM      5  C   UNL     1     -10.932   4.447 -16.441  0.00  0.00    +0.010 A 
ATOM      6  C   UNL     1     -11.292   3.275 -15.784  0.00  0.00    +0.003 A 
ATOM      7  C   UNL     1     -11.532   6.413 -17.750  0.00  0.00    +0.011 A 
ATOM      8  C   UNL     1     -12.494   7.187 -18.384  0.00  0.00    +0.020 A 
ATOM      9  C   UNL     1     -13.799   6.750 -18.341  0.00  0.00    +0.111 A 
ATOM     10  N   UNL     1     -14.189   5.614 -17.722  0.00  0.00    -0.253 NA
ATOM     11  C   UNL     1     -12.622   2.883 -15.773  0.00  0.00    +0.030 A 
ENDBRANCH   1   2
BRANCH   1  12
ATOM     12  O   UNL     1     -15.286   1.823 -15.789  0.00  0.00    -0.263 OA
ATOM     13  H   UNL     1     -14.534   1.742 -15.184  0.00  0.00    +0.244 HD
ENDBRANCH   1  12
BRANCH   1  14
ATOM     14  O   UNL     1     -15.776   3.308 -17.758  0.00  0.00    -0.263 OA
ATOM     15  H   UNL     1     -16.412   2.603 -17.957  0.00  0.00    +0.244 HD
ENDBRANCH   1  14
BRANCH   1  16
ATOM     16  O   UNL     1     -16.052   4.224 -15.462  0.00  0.00    -0.363 OA
BRANCH  16  21
ATOM     17 CL   UNL     1     -16.095   3.671  -9.620  0.00  0.00    -0.084 Cl
ATOM     18  C   UNL     1     -16.099   3.818 -11.334  0.00  0.00    +0.041 A 
ATOM     19  C   UNL     1     -17.074   3.161 -12.084  0.00  0.00    +0.023 A 
ATOM     20  C   UNL     1     -17.078   3.278 -13.477  0.00  0.00    +0.050 A 
ATOM     21  C   UNL     1     -16.096   4.043 -14.107  0.00  0.00    +0.155 A 
ATOM     22  C   UNL     1     -15.135   4.718 -13.353  0.00  0.00    +0.050 A 
ATOM     23  C   UNL     1     -15.130   4.599 -11.963  0.00  0.00    +0.023 A 
ENDBRANCH  16  21
ENDBRANCH   1  16
TORSDOF 5
ENDMDL
MODEL 5
REMARK VINA RESULT:      -7.0      3.366      6.488
REMARK  Name = min_compound996.pdb
REMARK  5 active torsions:
REMARK  status: ('A' for Active; 'I' for Inactive)
REMARK    1  A    between atoms: _2  and  _9
REMARK    2  A    between atoms: _2  and  _19
REMARK    3  A    between atoms: _10  and  _19
REMARK    4  A    between atoms: _19  and  _20
REMARK    5  A    between atoms: _19  and  _21
REMARK                            x       y       z     vdW  Elec       q    Type
REMARK                         _______ _______ _______ _____ _____    ______ ____
ROOT
ATOM      1  S   UNL     1     -15.030   3.254 -16.444  0.00  0.00    -0.013 S 
ENDROOT
BRANCH   1   2
ATOM      2  C   UNL     1     -15.259   4.399 -15.112  0.00  0.00    +0.124 A 
ATOM      3  C   UNL     1     -15.303   5.762 -15.400  0.00  0.00    +0.097 A 
ATOM      4  C   UNL     1     -15.479   6.636 -14.302  0.00  0.00    +0.002 A 
ATOM      5  C   UNL     1     -15.600   6.138 -12.992  0.00  0.00    +0.010 A 
ATOM      6  C   UNL     1     -15.551   4.770 -12.745  0.00  0.00    +0.003 A 
ATOM      7  C   UNL     1     -15.533   8.015 -14.544  0.00  0.00    +0.011 A 
ATOM      8  C   UNL     1     -15.419   8.500 -15.840  0.00  0.00    +0.020 A 
ATOM      9  C   UNL     1     -15.251   7.585 -16.855  0.00  0.00    +0.111 A 
ATOM     10  N   UNL     1     -15.188   6.249 -16.656  0.00  0.00    -0.253 NA
ATOM     11  C   UNL     1     -15.379   3.893 -13.806  0.00  0.00    +0.030 A 
ENDBRANCH   1   2
BRANCH   1  12
ATOM     12  O   UNL     1     -15.986   3.616 -17.475  0.00  0.00    -0.263 OA
ATOM     13  H   UNL     1     -15.561   4.208 -18.115  0.00  0.00    +0.244 HD
ENDBRANCH   1  12
BRANCH   1  14
ATOM     14  O   UNL     1     -15.072   1.924 -15.855  0.00  0.00    -0.263 OA
ATOM     15  H   UNL     1     -14.568   1.308 -16.410  0.00  0.00    +0.244 HD
ENDBRANCH   1  14
BRANCH   1  16
ATOM     16  O   UNL     1     -13.500   3.501 -16.960  0.00  0.00    -0.363 OA
BRANCH  16  21
ATOM     17 CL   UNL     1      -9.411  -0.649 -16.258  0.00  0.00    -0.084 Cl
ATOM     18  C   UNL     1     -10.604   0.576 -16.444  0.00  0.00    +0.041 A 
ATOM     19  C   UNL     1     -10.691   1.608 -15.509  0.00  0.00    +0.023 A 
ATOM     20  C   UNL     1     -11.660   2.603 -15.657  0.00  0.00    +0.050 A 
ATOM     21  C   UNL     1     -12.543   2.549 -16.736  0.00  0.00    +0.155 A 
ATOM     22  C   UNL     1     -12.440   1.530 -17.683  0.00  0.00    +0.050 A 
ATOM     23  C   UNL     1     -11.473   0.534 -17.533  0.00  0.00    +0.023 A 
ENDBRANCH  16  21
ENDBRANCH   1  16
TORSDOF 5
ENDMDL
MODEL 6
REMARK VINA RESULT:      -7.0      3.689      6.657
REMARK  Name = min_compound996.pdb
REMARK  5 active torsions:
REMARK  status: ('A' for Active; 'I' for Inactive)
REMARK    1  A    between atoms: _2  and  _9
REMARK    2  A    between atoms: _2  and  _19
REMARK    3  A    between atoms: _10  and  _19
REMARK    4  A    between atoms: _19  and  _20
REMARK    5  A    between atoms: _19  and  _21
REMARK                            x       y       z     vdW  Elec       q    Type
REMARK                         _______ _______ _______ _____ _____    ______ ____
ROOT
ATOM      1  S   UNL     1     -14.383   3.845 -16.134  0.00  0.00    -0.013 S 
ENDROOT
BRANCH   1   2
ATOM      2  C   UNL     1     -14.615   5.592 -16.309  0.00  0.00    +0.124 A 
ATOM      3  C   UNL     1     -15.484   6.244 -15.436  0.00  0.00    +0.097 A 
ATOM      4  C   UNL     1     -15.643   7.637 -15.622  0.00  0.00    +0.002 A 
ATOM      5  C   UNL     1     -14.950   8.315 -16.642  0.00  0.00    +0.010 A 
ATOM      6  C   UNL     1     -14.091   7.628 -17.494  0.00  0.00    +0.003 A 
ATOM      7  C   UNL     1     -16.503   8.335 -14.764  0.00  0.00    +0.011 A 
ATOM      8  C   UNL     1     -17.178   7.661 -13.755  0.00  0.00    +0.020 A 
ATOM      9  C   UNL     1     -16.970   6.305 -13.639  0.00  0.00    +0.111 A 
ATOM     10  N   UNL     1     -16.153   5.600 -14.452  0.00  0.00    -0.253 NA
ATOM     11  C   UNL     1     -13.920   6.262 -17.331  0.00  0.00    +0.030 A 
ENDBRANCH   1   2
BRANCH   1  12
ATOM     12  O   UNL     1     -15.591   3.211 -16.632  0.00  0.00    -0.263 OA
ATOM     13  H   UNL     1     -16.341   3.816 -16.524  0.00  0.00    +0.244 HD
ENDBRANCH   1  12
BRANCH   1  14
ATOM     14  O   UNL     1     -13.965   3.621 -14.758  0.00  0.00    -0.263 OA
ATOM     15  H   UNL     1     -14.350   2.791 -14.435  0.00  0.00    +0.244 HD
ENDBRANCH   1  14
BRANCH   1  16
ATOM     16  O   UNL     1     -13.107   3.486 -17.088  0.00  0.00    -0.363 OA
BRANCH  16  21
ATOM     17 CL   UNL     1      -9.627  -1.062 -15.804  0.00  0.00    -0.084 Cl
ATOM     18  C   UNL     1     -10.634   0.285 -16.170  0.00  0.00    +0.041 A 
ATOM     19  C   UNL     1     -10.222   1.572 -15.823  0.00  0.00    +0.023 A 
ATOM     20  C   UNL     1     -11.039   2.668 -16.117  0.00  0.00    +0.050 A 
ATOM     21  C   UNL     1     -12.267   2.462 -16.746  0.00  0.00    +0.155 A 
ATOM     22  C   UNL     1     -12.666   1.176 -17.113  0.00  0.00    +0.050 A 
ATOM     23  C   UNL     1     -11.852   0.082 -16.816  0.00  0.00    +0.023 A 
ENDBRANCH  16  21
ENDBRANCH   1  16
TORSDOF 5
ENDMDL
MODEL 7
REMARK VINA RESULT:      -7.0     11.462     13.459
REMARK  Name = min_compound996.pdb
REMARK  5 active torsions:
REMARK  status: ('A' for Active; 'I' for Inactive)
REMARK    1  A    between atoms: _2  and  _9
REMARK    2  A    between atoms: _2  and  _19
REMARK    3  A    between atoms: _10  and  _19
REMARK    4  A    between atoms: _19  and  _20
REMARK    5  A    between atoms: _19  and  _21
REMARK                            x       y       z     vdW  Elec       q    Type
REMARK                         _______ _______ _______ _____ _____    ______ ____
ROOT
ATOM      1  S   UNL     1     -16.500  -1.414  -2.707  0.00  0.00    -0.013 S 
ENDROOT
BRANCH   1   2
ATOM      2  C   UNL     1     -15.499  -0.394  -3.753  0.00  0.00    +0.124 A 
ATOM      3  C   UNL     1     -15.847  -0.265  -5.096  0.00  0.00    +0.097 A 
ATOM      4  C   UNL     1     -15.011   0.553  -5.893  0.00  0.00    +0.002 A 
ATOM      5  C   UNL     1     -13.888   1.195  -5.340  0.00  0.00    +0.010 A 
ATOM      6  C   UNL     1     -13.573   1.041  -3.994  0.00  0.00    +0.003 A 
ATOM      7  C   UNL     1     -15.326   0.715  -7.248  0.00  0.00    +0.011 A 
ATOM      8  C   UNL     1     -16.439   0.084  -7.786  0.00  0.00    +0.020 A 
ATOM      9  C   UNL     1     -17.203  -0.694  -6.945  0.00  0.00    +0.111 A 
ATOM     10  N   UNL     1     -16.926  -0.878  -5.635  0.00  0.00    -0.253 NA
ATOM     11  C   UNL     1     -14.378   0.244  -3.193  0.00  0.00    +0.030 A 
ENDBRANCH   1   2
BRANCH   1  12
ATOM     12  O   UNL     1     -16.604  -2.707  -3.359  0.00  0.00    -0.263 OA
ATOM     13  H   UNL     1     -15.856  -3.263  -3.093  0.00  0.00    +0.244 HD
ENDBRANCH   1  12
BRANCH   1  14
ATOM     14  O   UNL     1     -17.706  -0.650  -2.421  0.00  0.00    -0.263 OA
ATOM     15  H   UNL     1     -17.823  -0.579  -1.460  0.00  0.00    +0.244 HD
ENDBRANCH   1  14
BRANCH   1  16
ATOM     16  O   UNL     1     -15.667  -1.537  -1.307  0.00  0.00    -0.363 OA
BRANCH  16  21
ATOM     17 CL   UNL     1     -13.033  -6.606   0.038  0.00  0.00    -0.084 Cl
ATOM     18  C   UNL     1     -13.788  -5.113  -0.367  0.00  0.00    +0.041 A 
ATOM     19  C   UNL     1     -13.158  -4.236  -1.250  0.00  0.00    +0.023 A 
ATOM     20  C   UNL     1     -13.767  -3.022  -1.580  0.00  0.00    +0.050 A 
ATOM     21  C   UNL     1     -14.998  -2.694  -1.012  0.00  0.00    +0.155 A 
ATOM     22  C   UNL     1     -15.637  -3.582  -0.146  0.00  0.00    +0.050 A 
ATOM     23  C   UNL     1     -15.027  -4.793   0.185  0.00  0.00    +0.023 A 
ENDBRANCH  16  21
ENDBRANCH   1  16
TORSDOF 5
ENDMDL
MODEL 8
REMARK VINA RESULT:      -6.8     12.378     14.332
REMARK  Name = min_compound996.pdb
REMARK  5 active torsions:
REMARK  status: ('A' for Active; 'I' for Inactive)
REMARK    1  A    between atoms: _2  and  _9
REMARK    2  A    between atoms: _2  and  _19
REMARK    3  A    between atoms: _10  and  _19
REMARK    4  A    between atoms: _19  and  _20
REMARK    5  A    between atoms: _19  and  _21
REMARK                            x       y       z     vdW  Elec       q    Type
REMARK                         _______ _______ _______ _____ _____    ______ ____
ROOT
ATOM      1  S   UNL     1     -15.779  -1.835  -2.797  0.00  0.00    -0.013 S 
ENDROOT
BRANCH   1   2
ATOM      2  C   UNL     1     -15.169  -0.211  -3.150  0.00  0.00    +0.124 A 
ATOM      3  C   UNL     1     -16.080   0.789  -3.488  0.00  0.00    +0.097 A 
ATOM      4  C   UNL     1     -15.544   2.067  -3.770  0.00  0.00    +0.002 A 
ATOM      5  C   UNL     1     -14.157   2.300  -3.708  0.00  0.00    +0.010 A 
ATOM      6  C   UNL     1     -13.280   1.275  -3.368  0.00  0.00    +0.003 A 
ATOM      7  C   UNL     1     -16.423   3.104  -4.109  0.00  0.00    +0.011 A 
ATOM      8  C   UNL     1     -17.790   2.869  -4.162  0.00  0.00    +0.020 A 
ATOM      9  C   UNL     1     -18.234   1.598  -3.873  0.00  0.00    +0.111 A 
ATOM     10  N   UNL     1     -17.414   0.574  -3.548  0.00  0.00    -0.253 NA
ATOM     11  C   UNL     1     -13.783   0.014  -3.087  0.00  0.00    +0.030 A 
ENDBRANCH   1   2
BRANCH   1  12
ATOM     12  O   UNL     1     -16.849  -2.095  -3.743  0.00  0.00    -0.263 OA
ATOM     13  H   UNL     1     -17.318  -1.269  -3.935  0.00  0.00    +0.244 HD
ENDBRANCH   1  12
BRANCH   1  14
ATOM     14  O   UNL     1     -16.055  -1.870  -1.368  0.00  0.00    -0.263 OA
ATOM     15  H   UNL     1     -16.834  -1.324  -1.176  0.00  0.00    +0.244 HD
ENDBRANCH   1  14
BRANCH   1  16
ATOM     16  O   UNL     1     -14.514  -2.833  -3.065  0.00  0.00    -0.363 OA
BRANCH  16  21
ATOM     17 CL   UNL     1     -13.595  -7.406   0.497  0.00  0.00    -0.084 Cl
ATOM     18  C   UNL     1     -13.848  -6.055  -0.538  0.00  0.00    +0.041 A 
ATOM     19  C   UNL     1     -12.940  -4.995  -0.528  0.00  0.00    +0.023 A 
ATOM     20  C   UNL     1     -13.144  -3.896  -1.367  0.00  0.00    +0.050 A 
ATOM     21  C   UNL     1     -14.262  -3.863  -2.199  0.00  0.00    +0.155 A 
ATOM     22  C   UNL     1     -15.157  -4.934  -2.224  0.00  0.00    +0.050 A 
ATOM     23  C   UNL     1     -14.954  -6.031  -1.385  0.00  0.00    +0.023 A 
ENDBRANCH  16  21
ENDBRANCH   1  16
TORSDOF 5
ENDMDL
MODEL 9
REMARK VINA RESULT:      -6.7      8.856     11.269
REMARK  Name = min_compound996.pdb
REMARK  5 active torsions:
REMARK  status: ('A' for Active; 'I' for Inactive)
REMARK    1  A    between atoms: _2  and  _9
REMARK    2  A    between atoms: _2  and  _19
REMARK    3  A    between atoms: _10  and  _19
REMARK    4  A    between atoms: _19  and  _20
REMARK    5  A    between atoms: _19  and  _21
REMARK                            x       y       z     vdW  Elec       q    Type
REMARK                         _______ _______ _______ _____ _____    ______ ____
ROOT
ATOM      1  S   UNL     1     -17.497   2.277  -4.377  0.00  0.00    -0.013 S 
ENDROOT
BRANCH   1   2
ATOM      2  C   UNL     1     -15.877   1.740  -3.904  0.00  0.00    +0.124 A 
ATOM      3  C   UNL     1     -15.711   0.435  -3.445  0.00  0.00    +0.097 A 
ATOM      4  C   UNL     1     -14.400   0.056  -3.070  0.00  0.00    +0.002 A 
ATOM      5  C   UNL     1     -13.330   0.966  -3.163  0.00  0.00    +0.010 A 
ATOM      6  C   UNL     1     -13.537   2.261  -3.626  0.00  0.00    +0.003 A 
ATOM      7  C   UNL     1     -14.184  -1.248  -2.607  0.00  0.00    +0.011 A 
ATOM      8  C   UNL     1     -15.243  -2.142  -2.525  0.00  0.00    +0.020 A 
ATOM      9  C   UNL     1     -16.489  -1.698  -2.909  0.00  0.00    +0.111 A 
ATOM     10  N   UNL     1     -16.733  -0.446  -3.354  0.00  0.00    -0.253 NA
ATOM     11  C   UNL     1     -14.814   2.654  -3.999  0.00  0.00    +0.030 A 
ENDBRANCH   1   2
BRANCH   1  12
ATOM     12  O   UNL     1     -17.372   3.659  -4.802  0.00  0.00    -0.263 OA
ATOM     13  H   UNL     1     -17.585   3.728  -5.745  0.00  0.00    +0.244 HD
ENDBRANCH   1  12
BRANCH   1  14
ATOM     14  O   UNL     1     -18.382   1.938  -3.272  0.00  0.00    -0.263 OA
ATOM     15  H   UNL     1     -18.211   1.026  -2.989  0.00  0.00    +0.244 HD
ENDBRANCH   1  14
BRANCH   1  16
ATOM     16  O   UNL     1     -17.913   1.321  -5.635  0.00  0.00    -0.363 OA
BRANCH  16  21
ATOM     17 CL   UNL     1     -16.997   3.133 -11.141  0.00  0.00    -0.084 Cl
ATOM     18  C   UNL     1     -17.286   2.608  -9.529  0.00  0.00    +0.041 A 
ATOM     19  C   UNL     1     -18.585   2.616  -9.020  0.00  0.00    +0.023 A 
ATOM     20  C   UNL     1     -18.823   2.192  -7.710  0.00  0.00    +0.050 A 
ATOM     21  C   UNL     1     -17.754   1.774  -6.917  0.00  0.00    +0.155 A 
ATOM     22  C   UNL     1     -16.459   1.744  -7.435  0.00  0.00    +0.050 A 
ATOM     23  C   UNL     1     -16.221   2.171  -8.742  0.00  0.00    +0.023 A 
ENDBRANCH  16  21
ENDBRANCH   1  16
TORSDOF 5
ENDMDL
