MODEL 1
REMARK VINA RESULT:      -7.1      0.000      0.000
REMARK  Name = min_compound954.pdb
REMARK  6 active torsions:
REMARK  status: ('A' for Active; 'I' for Inactive)
REMARK    1  A    between atoms: _1  and  _4
REMARK    2  A    between atoms: _1  and  _14
REMARK    3  A    between atoms: _2  and  _3
REMARK    4  A    between atoms: _2  and  _15
REMARK    5  A    between atoms: _9  and  _12
REMARK    6  A    between atoms: _13  and  _16
REMARK                            x       y       z     vdW  Elec       q    Type
REMARK                         _______ _______ _______ _____ _____    ______ ____
ROOT
ATOM      1  C   UNL     1     -14.519   6.013 -19.395  0.00  0.00    +0.163 A 
ATOM      2  C   UNL     1     -14.269   4.666 -19.685  0.00  0.00    +0.067 A 
ATOM      3  C   UNL     1     -13.395   3.994 -18.835  0.00  0.00    +0.098 A 
ATOM      4  C   UNL     1     -12.933   2.673 -18.825  0.00  0.00    +0.204 C 
ATOM      5  C   UNL     1     -12.032   2.581 -17.698  0.00  0.00    +0.261 C 
ATOM      6  N   UNL     1     -11.991   3.767 -17.086  0.00  0.00    -0.209 N 
ATOM      7  O   UNL     1     -11.261   4.112 -16.086  0.00  0.00    -0.549 OA
ATOM      8  C   UNL     1     -12.769   4.596 -17.734  0.00  0.00    +0.226 A 
ATOM      9  C   UNL     1     -13.008   5.946 -17.432  0.00  0.00    +0.128 A 
ATOM     10  C   UNL     1     -13.911   6.625 -18.265  0.00  0.00    +0.168 A 
ENDROOT
BRANCH   5  11
ATOM     11  C   UNL     1     -11.262   1.298 -17.294  0.00  0.00    +0.051 A 
ATOM     12  C   UNL     1     -11.908   0.225 -16.666  0.00  0.00    +0.014 A 
ATOM     13  C   UNL     1     -11.211  -0.931 -16.296  0.00  0.00    +0.001 A 
ATOM     14  C   UNL     1      -9.848  -1.039 -16.554  0.00  0.00    +0.000 A 
ATOM     15  C   UNL     1      -9.187   0.013 -17.179  0.00  0.00    +0.001 A 
ATOM     16  C   UNL     1      -9.890   1.169 -17.542  0.00  0.00    +0.014 A 
ENDBRANCH   5  11
BRANCH   1  17
ATOM     17  O   UNL     1     -15.341   6.817 -20.159  0.00  0.00    -0.491 OA
ATOM     18  C   UNL     1     -14.792   7.278 -21.387  0.00  0.00    +0.277 C 
ENDBRANCH   1  17
BRANCH   4  19
ATOM     19  O   UNL     1     -13.332   1.742 -19.688  0.00  0.00    -0.501 OA
ATOM     20  H   UNL     1     -13.941   1.961 -20.366  0.00  0.00    +0.292 HD
ENDBRANCH   4  19
BRANCH  10  21
ATOM     21  O   UNL     1     -14.145   7.949 -17.938  0.00  0.00    -0.491 OA
ATOM     22  C   UNL     1     -14.842   8.049 -16.700  0.00  0.00    +0.277 C 
ENDBRANCH  10  21
TORSDOF 4
ENDMDL
MODEL 2
REMARK VINA RESULT:      -7.0      0.728      2.822
REMARK  Name = min_compound954.pdb
REMARK  6 active torsions:
REMARK  status: ('A' for Active; 'I' for Inactive)
REMARK    1  A    between atoms: _1  and  _4
REMARK    2  A    between atoms: _1  and  _14
REMARK    3  A    between atoms: _2  and  _3
REMARK    4  A    between atoms: _2  and  _15
REMARK    5  A    between atoms: _9  and  _12
REMARK    6  A    between atoms: _13  and  _16
REMARK                            x       y       z     vdW  Elec       q    Type
REMARK                         _______ _______ _______ _____ _____    ______ ____
ROOT
ATOM      1  C   UNL     1     -13.890   6.843 -18.035  0.00  0.00    +0.163 A 
ATOM      2  C   UNL     1     -12.958   6.209 -17.204  0.00  0.00    +0.067 A 
ATOM      3  C   UNL     1     -12.682   4.872 -17.480  0.00  0.00    +0.098 A 
ATOM      4  C   UNL     1     -11.820   3.951 -16.871  0.00  0.00    +0.204 C 
ATOM      5  C   UNL     1     -11.984   2.717 -17.603  0.00  0.00    +0.261 C 
ATOM      6  N   UNL     1     -12.868   2.915 -18.584  0.00  0.00    -0.209 N 
ATOM      7  O   UNL     1     -13.332   2.051 -19.414  0.00  0.00    -0.549 OA
ATOM      8  C   UNL     1     -13.285   4.155 -18.523  0.00  0.00    +0.226 A 
ATOM      9  C   UNL     1     -14.222   4.776 -19.362  0.00  0.00    +0.128 A 
ATOM     10  C   UNL     1     -14.487   6.133 -19.113  0.00  0.00    +0.168 A 
ENDROOT
BRANCH   5  11
ATOM     11  C   UNL     1     -11.235   1.399 -17.279  0.00  0.00    +0.051 A 
ATOM     12  C   UNL     1      -9.870   1.247 -17.555  0.00  0.00    +0.014 A 
ATOM     13  C   UNL     1      -9.195   0.055 -17.266  0.00  0.00    +0.001 A 
ATOM     14  C   UNL     1      -9.876  -1.012 -16.689  0.00  0.00    +0.000 A 
ATOM     15  C   UNL     1     -11.231  -0.882 -16.404  0.00  0.00    +0.001 A 
ATOM     16  C   UNL     1     -11.901   0.312 -16.699  0.00  0.00    +0.014 A 
ENDBRANCH   5  11
BRANCH   1  17
ATOM     17  O   UNL     1     -14.287   8.155 -17.873  0.00  0.00    -0.491 OA
ATOM     18  C   UNL     1     -15.077   8.427 -16.723  0.00  0.00    +0.277 C 
ENDBRANCH   1  17
BRANCH   4  19
ATOM     19  O   UNL     1     -11.013   4.252 -15.856  0.00  0.00    -0.501 OA
ATOM     20  H   UNL     1     -11.339   4.740 -15.126  0.00  0.00    +0.292 HD
ENDBRANCH   4  19
BRANCH  10  21
ATOM     21  O   UNL     1     -15.401   6.729 -19.963  0.00  0.00    -0.491 OA
ATOM     22  C   UNL     1     -15.869   5.799 -20.934  0.00  0.00    +0.277 C 
ENDBRANCH  10  21
TORSDOF 4
ENDMDL
MODEL 3
REMARK VINA RESULT:      -6.4      2.330      2.866
REMARK  Name = min_compound954.pdb
REMARK  6 active torsions:
REMARK  status: ('A' for Active; 'I' for Inactive)
REMARK    1  A    between atoms: _1  and  _4
REMARK    2  A    between atoms: _1  and  _14
REMARK    3  A    between atoms: _2  and  _3
REMARK    4  A    between atoms: _2  and  _15
REMARK    5  A    between atoms: _9  and  _12
REMARK    6  A    between atoms: _13  and  _16
REMARK                            x       y       z     vdW  Elec       q    Type
REMARK                         _______ _______ _______ _____ _____    ______ ____
ROOT
ATOM      1  C   UNL     1     -16.420   5.778 -16.416  0.00  0.00    +0.163 A 
ATOM      2  C   UNL     1     -16.220   4.407 -16.210  0.00  0.00    +0.067 A 
ATOM      3  C   UNL     1     -14.915   3.939 -16.340  0.00  0.00    +0.098 A 
ATOM      4  C   UNL     1     -14.364   2.659 -16.202  0.00  0.00    +0.204 C 
ATOM      5  C   UNL     1     -12.952   2.809 -16.471  0.00  0.00    +0.261 C 
ATOM      6  N   UNL     1     -12.700   4.095 -16.728  0.00  0.00    -0.209 N 
ATOM      7  O   UNL     1     -11.581   4.624 -17.077  0.00  0.00    -0.549 OA
ATOM      8  C   UNL     1     -13.825   4.760 -16.662  0.00  0.00    +0.226 A 
ATOM      9  C   UNL     1     -14.010   6.136 -16.872  0.00  0.00    +0.128 A 
ATOM     10  C   UNL     1     -15.317   6.625 -16.715  0.00  0.00    +0.168 A 
ENDROOT
BRANCH   5  11
ATOM     11  C   UNL     1     -11.927   1.646 -16.450  0.00  0.00    +0.051 A 
ATOM     12  C   UNL     1     -10.885   1.608 -15.516  0.00  0.00    +0.014 A 
ATOM     13  C   UNL     1      -9.956   0.560 -15.501  0.00  0.00    +0.001 A 
ATOM     14  C   UNL     1     -10.057  -0.478 -16.422  0.00  0.00    +0.000 A 
ATOM     15  C   UNL     1     -11.087  -0.461 -17.357  0.00  0.00    +0.001 A 
ATOM     16  C   UNL     1     -12.009   0.593 -17.369  0.00  0.00    +0.014 A 
ENDBRANCH   5  11
BRANCH   1  17
ATOM     17  O   UNL     1     -17.657   6.386 -16.348  0.00  0.00    -0.491 OA
ATOM     18  C   UNL     1     -18.246   6.453 -15.056  0.00  0.00    +0.277 C 
ENDBRANCH   1  17
BRANCH   4  19
ATOM     19  O   UNL     1     -15.065   1.586 -15.845  0.00  0.00    -0.501 OA
ATOM     20  H   UNL     1     -15.090   0.835 -16.405  0.00  0.00    +0.292 HD
ENDBRANCH   4  19
BRANCH  10  21
ATOM     21  O   UNL     1     -15.473   7.985 -16.910  0.00  0.00    -0.491 OA
ATOM     22  C   UNL     1     -15.237   8.700 -15.701  0.00  0.00    +0.277 C 
ENDBRANCH  10  21
TORSDOF 4
ENDMDL
MODEL 4
REMARK VINA RESULT:      -6.4      2.192      2.853
REMARK  Name = min_compound954.pdb
REMARK  6 active torsions:
REMARK  status: ('A' for Active; 'I' for Inactive)
REMARK    1  A    between atoms: _1  and  _4
REMARK    2  A    between atoms: _1  and  _14
REMARK    3  A    between atoms: _2  and  _3
REMARK    4  A    between atoms: _2  and  _15
REMARK    5  A    between atoms: _9  and  _12
REMARK    6  A    between atoms: _13  and  _16
REMARK                            x       y       z     vdW  Elec       q    Type
REMARK                         _______ _______ _______ _____ _____    ______ ____
ROOT
ATOM      1  C   UNL     1     -15.043   6.988 -16.716  0.00  0.00    +0.163 A 
ATOM      2  C   UNL     1     -13.751   6.513 -16.974  0.00  0.00    +0.067 A 
ATOM      3  C   UNL     1     -13.526   5.158 -16.749  0.00  0.00    +0.098 A 
ATOM      4  C   UNL     1     -12.383   4.363 -16.902  0.00  0.00    +0.204 C 
ATOM      5  C   UNL     1     -12.774   3.033 -16.495  0.00  0.00    +0.261 C 
ATOM      6  N   UNL     1     -14.063   3.052 -16.148  0.00  0.00    -0.209 N 
ATOM      7  O   UNL     1     -14.765   2.088 -15.670  0.00  0.00    -0.549 OA
ATOM      8  C   UNL     1     -14.511   4.274 -16.284  0.00  0.00    +0.226 A 
ATOM      9  C   UNL     1     -15.810   4.736 -16.019  0.00  0.00    +0.128 A 
ATOM     10  C   UNL     1     -16.057   6.095 -16.271  0.00  0.00    +0.168 A 
ENDROOT
BRANCH   5  11
ATOM     11  C   UNL     1     -11.825   1.806 -16.482  0.00  0.00    +0.051 A 
ATOM     12  C   UNL     1     -11.939   0.785 -17.434  0.00  0.00    +0.014 A 
ATOM     13  C   UNL     1     -11.086  -0.325 -17.419  0.00  0.00    +0.001 A 
ATOM     14  C   UNL     1     -10.094  -0.433 -16.449  0.00  0.00    +0.000 A 
ATOM     15  C   UNL     1      -9.963   0.572 -15.495  0.00  0.00    +0.001 A 
ATOM     16  C   UNL     1     -10.822   1.677 -15.514  0.00  0.00    +0.014 A 
ENDBRANCH   5  11
BRANCH   1  17
ATOM     17  O   UNL     1     -15.414   8.309 -16.866  0.00  0.00    -0.491 OA
ATOM     18  C   UNL     1     -15.828   8.692 -18.170  0.00  0.00    +0.277 C 
ENDBRANCH   1  17
BRANCH   4  19
ATOM     19  O   UNL     1     -11.225   4.814 -17.378  0.00  0.00    -0.501 OA
ATOM     20  H   UNL     1     -11.069   5.737 -17.436  0.00  0.00    +0.292 HD
ENDBRANCH   4  19
BRANCH  10  21
ATOM     21  O   UNL     1     -17.348   6.524 -16.020  0.00  0.00    -0.491 OA
ATOM     22  C   UNL     1     -17.601   6.571 -14.619  0.00  0.00    +0.277 C 
ENDBRANCH  10  21
TORSDOF 4
ENDMDL
MODEL 5
REMARK VINA RESULT:      -6.1     13.665     16.222
REMARK  Name = min_compound954.pdb
REMARK  6 active torsions:
REMARK  status: ('A' for Active; 'I' for Inactive)
REMARK    1  A    between atoms: _1  and  _4
REMARK    2  A    between atoms: _1  and  _14
REMARK    3  A    between atoms: _2  and  _3
REMARK    4  A    between atoms: _2  and  _15
REMARK    5  A    between atoms: _9  and  _12
REMARK    6  A    between atoms: _13  and  _16
REMARK                            x       y       z     vdW  Elec       q    Type
REMARK                         _______ _______ _______ _____ _____    ______ ____
ROOT
ATOM      1  C   UNL     1     -14.647  -2.964  -1.860  0.00  0.00    +0.163 A 
ATOM      2  C   UNL     1     -14.439  -2.806  -3.236  0.00  0.00    +0.067 A 
ATOM      3  C   UNL     1     -15.133  -1.773  -3.860  0.00  0.00    +0.098 A 
ATOM      4  C   UNL     1     -15.160  -1.335  -5.190  0.00  0.00    +0.204 C 
ATOM      5  C   UNL     1     -16.082  -0.224  -5.218  0.00  0.00    +0.261 C 
ATOM      6  N   UNL     1     -16.544  -0.019  -3.982  0.00  0.00    -0.209 N 
ATOM      7  O   UNL     1     -17.431   0.831  -3.602  0.00  0.00    -0.549 OA
ATOM      8  C   UNL     1     -16.009  -0.910  -3.186  0.00  0.00    +0.226 A 
ATOM      9  C   UNL     1     -16.230  -1.057  -1.808  0.00  0.00    +0.128 A 
ATOM     10  C   UNL     1     -15.513  -2.077  -1.162  0.00  0.00    +0.168 A 
ENDROOT
BRANCH   5  11
ATOM     11  C   UNL     1     -16.448   0.580  -6.493  0.00  0.00    +0.051 A 
ATOM     12  C   UNL     1     -17.732   0.525  -7.047  0.00  0.00    +0.014 A 
ATOM     13  C   UNL     1     -18.061   1.247  -8.201  0.00  0.00    +0.001 A 
ATOM     14  C   UNL     1     -17.106   2.045  -8.823  0.00  0.00    +0.000 A 
ATOM     15  C   UNL     1     -15.824   2.116  -8.287  0.00  0.00    +0.001 A 
ATOM     16  C   UNL     1     -15.501   1.387  -7.135  0.00  0.00    +0.014 A 
ENDBRANCH   5  11
BRANCH   1  17
ATOM     17  O   UNL     1     -14.053  -3.957  -1.108  0.00  0.00    -0.491 OA
ATOM     18  C   UNL     1     -13.666  -5.126  -1.818  0.00  0.00    +0.277 C 
ENDBRANCH   1  17
BRANCH   4  19
ATOM     19  O   UNL     1     -14.416  -1.864  -6.158  0.00  0.00    -0.501 OA
ATOM     20  H   UNL     1     -14.605  -2.724  -6.479  0.00  0.00    +0.292 HD
ENDBRANCH   4  19
BRANCH  10  21
ATOM     21  O   UNL     1     -15.732  -2.192   0.199  0.00  0.00    -0.491 OA
ATOM     22  C   UNL     1     -17.046  -1.760   0.537  0.00  0.00    +0.277 C 
ENDBRANCH  10  21
TORSDOF 4
ENDMDL
MODEL 6
REMARK VINA RESULT:      -6.1     11.105     12.096
REMARK  Name = min_compound954.pdb
REMARK  6 active torsions:
REMARK  status: ('A' for Active; 'I' for Inactive)
REMARK    1  A    between atoms: _1  and  _4
REMARK    2  A    between atoms: _1  and  _14
REMARK    3  A    between atoms: _2  and  _3
REMARK    4  A    between atoms: _2  and  _15
REMARK    5  A    between atoms: _9  and  _12
REMARK    6  A    between atoms: _13  and  _16
REMARK                            x       y       z     vdW  Elec       q    Type
REMARK                         _______ _______ _______ _____ _____    ______ ____
ROOT
ATOM      1  C   UNL     1     -17.615   3.074 -10.067  0.00  0.00    +0.163 A 
ATOM      2  C   UNL     1     -16.387   2.690  -9.512  0.00  0.00    +0.067 A 
ATOM      3  C   UNL     1     -16.424   2.118  -8.244  0.00  0.00    +0.098 A 
ATOM      4  C   UNL     1     -15.412   1.626  -7.411  0.00  0.00    +0.204 C 
ATOM      5  C   UNL     1     -16.078   1.169  -6.213  0.00  0.00    +0.261 C 
ATOM      6  N   UNL     1     -17.391   1.366  -6.351  0.00  0.00    -0.209 N 
ATOM      7  O   UNL     1     -18.316   1.152  -5.485  0.00  0.00    -0.549 OA
ATOM      8  C   UNL     1     -17.607   1.918  -7.518  0.00  0.00    +0.226 A 
ATOM      9  C   UNL     1     -18.845   2.299  -8.059  0.00  0.00    +0.128 A 
ATOM     10  C   UNL     1     -18.823   2.851  -9.351  0.00  0.00    +0.168 A 
ENDROOT
BRANCH   5  11
ATOM     11  C   UNL     1     -15.354   0.551  -4.989  0.00  0.00    +0.051 A 
ATOM     12  C   UNL     1     -14.414   1.282  -4.251  0.00  0.00    +0.014 A 
ATOM     13  C   UNL     1     -13.756   0.722  -3.149  0.00  0.00    +0.001 A 
ATOM     14  C   UNL     1     -14.032  -0.585  -2.759  0.00  0.00    +0.000 A 
ATOM     15  C   UNL     1     -14.964  -1.328  -3.477  0.00  0.00    +0.001 A 
ATOM     16  C   UNL     1     -15.614  -0.763  -4.581  0.00  0.00    +0.014 A 
ENDBRANCH   5  11
BRANCH   1  17
ATOM     17  O   UNL     1     -17.738   3.678 -11.302  0.00  0.00    -0.491 OA
ATOM     18  C   UNL     1     -17.176   2.968 -12.398  0.00  0.00    +0.277 C 
ENDBRANCH   1  17
BRANCH   4  19
ATOM     19  O   UNL     1     -14.127   1.582  -7.754  0.00  0.00    -0.501 OA
ATOM     20  H   UNL     1     -13.475   1.921  -7.173  0.00  0.00    +0.292 HD
ENDBRANCH   4  19
BRANCH  10  21
ATOM     21  O   UNL     1     -20.056   3.203  -9.871  0.00  0.00    -0.491 OA
ATOM     22  C   UNL     1     -20.998   3.431  -8.828  0.00  0.00    +0.277 C 
ENDBRANCH  10  21
TORSDOF 4
ENDMDL
MODEL 7
REMARK VINA RESULT:      -5.8     11.082     12.140
REMARK  Name = min_compound954.pdb
REMARK  6 active torsions:
REMARK  status: ('A' for Active; 'I' for Inactive)
REMARK    1  A    between atoms: _1  and  _4
REMARK    2  A    between atoms: _1  and  _14
REMARK    3  A    between atoms: _2  and  _3
REMARK    4  A    between atoms: _2  and  _15
REMARK    5  A    between atoms: _9  and  _12
REMARK    6  A    between atoms: _13  and  _16
REMARK                            x       y       z     vdW  Elec       q    Type
REMARK                         _______ _______ _______ _____ _____    ______ ____
ROOT
ATOM      1  C   UNL     1     -18.761   2.898  -9.442  0.00  0.00    +0.163 A 
ATOM      2  C   UNL     1     -18.926   2.349  -8.164  0.00  0.00    +0.067 A 
ATOM      3  C   UNL     1     -17.772   1.921  -7.514  0.00  0.00    +0.098 A 
ATOM      4  C   UNL     1     -17.570   1.340  -6.256  0.00  0.00    +0.204 C 
ATOM      5  C   UNL     1     -16.148   1.108  -6.155  0.00  0.00    +0.261 C 
ATOM      6  N   UNL     1     -15.563   1.543  -7.273  0.00  0.00    -0.209 N 
ATOM      7  O   UNL     1     -14.322   1.458  -7.599  0.00  0.00    -0.549 OA
ATOM      8  C   UNL     1     -16.489   2.011  -8.071  0.00  0.00    +0.226 A 
ATOM      9  C   UNL     1     -16.308   2.557  -9.352  0.00  0.00    +0.128 A 
ATOM     10  C   UNL     1     -17.461   3.020 -10.005  0.00  0.00    +0.168 A 
ENDROOT
BRANCH   5  11
ATOM     11  C   UNL     1     -15.449   0.463  -4.930  0.00  0.00    +0.051 A 
ATOM     12  C   UNL     1     -14.471   1.150  -4.201  0.00  0.00    +0.014 A 
ATOM     13  C   UNL     1     -13.836   0.564  -3.098  0.00  0.00    +0.001 A 
ATOM     14  C   UNL     1     -14.175  -0.725  -2.700  0.00  0.00    +0.000 A 
ATOM     15  C   UNL     1     -15.146  -1.425  -3.409  0.00  0.00    +0.001 A 
ATOM     16  C   UNL     1     -15.773  -0.835  -4.513  0.00  0.00    +0.014 A 
ENDBRANCH   5  11
BRANCH   1  17
ATOM     17  O   UNL     1     -19.810   3.343 -10.222  0.00  0.00    -0.491 OA
ATOM     18  C   UNL     1     -20.618   4.364  -9.651  0.00  0.00    +0.277 C 
ENDBRANCH   1  17
BRANCH   4  19
ATOM     19  O   UNL     1     -18.544   1.126  -5.374  0.00  0.00    -0.501 OA
ATOM     20  H   UNL     1     -19.349   0.735  -5.650  0.00  0.00    +0.292 HD
ENDBRANCH   4  19
BRANCH  10  21
ATOM     21  O   UNL     1     -17.257   3.570 -11.258  0.00  0.00    -0.491 OA
ATOM     22  C   UNL     1     -16.008   4.251 -11.314  0.00  0.00    +0.277 C 
ENDBRANCH  10  21
TORSDOF 4
ENDMDL
MODEL 8
REMARK VINA RESULT:      -5.8      9.022     10.415
REMARK  Name = min_compound954.pdb
REMARK  6 active torsions:
REMARK  status: ('A' for Active; 'I' for Inactive)
REMARK    1  A    between atoms: _1  and  _4
REMARK    2  A    between atoms: _1  and  _14
REMARK    3  A    between atoms: _2  and  _3
REMARK    4  A    between atoms: _2  and  _15
REMARK    5  A    between atoms: _9  and  _12
REMARK    6  A    between atoms: _13  and  _16
REMARK                            x       y       z     vdW  Elec       q    Type
REMARK                         _______ _______ _______ _____ _____    ______ ____
ROOT
ATOM      1  C   UNL     1     -18.228   7.258  -9.531  0.00  0.00    +0.163 A 
ATOM      2  C   UNL     1     -18.090   6.445  -8.399  0.00  0.00    +0.067 A 
ATOM      3  C   UNL     1     -17.556   5.175  -8.602  0.00  0.00    +0.098 A 
ATOM      4  C   UNL     1     -17.280   4.126  -7.717  0.00  0.00    +0.204 C 
ATOM      5  C   UNL     1     -16.744   3.058  -8.529  0.00  0.00    +0.261 C 
ATOM      6  N   UNL     1     -16.695   3.470  -9.798  0.00  0.00    -0.209 N 
ATOM      7  O   UNL     1     -16.341   2.794 -10.833  0.00  0.00    -0.549 OA
ATOM      8  C   UNL     1     -17.166   4.690  -9.858  0.00  0.00    +0.226 A 
ATOM      9  C   UNL     1     -17.300   5.492 -11.002  0.00  0.00    +0.128 A 
ATOM     10  C   UNL     1     -17.810   6.786 -10.805  0.00  0.00    +0.168 A 
ENDROOT
BRANCH   5  11
ATOM     11  C   UNL     1     -16.303   1.676  -7.982  0.00  0.00    +0.051 A 
ATOM     12  C   UNL     1     -17.129   0.551  -8.091  0.00  0.00    +0.014 A 
ATOM     13  C   UNL     1     -16.733  -0.696  -7.592  0.00  0.00    +0.001 A 
ATOM     14  C   UNL     1     -15.494  -0.842  -6.975  0.00  0.00    +0.000 A 
ATOM     15  C   UNL     1     -14.657   0.263  -6.858  0.00  0.00    +0.001 A 
ATOM     16  C   UNL     1     -15.062   1.508  -7.356  0.00  0.00    +0.014 A 
ENDBRANCH   5  11
BRANCH   1  17
ATOM     17  O   UNL     1     -18.764   8.530  -9.495  0.00  0.00    -0.491 OA
ATOM     18  C   UNL     1     -19.910   8.697  -8.672  0.00  0.00    +0.277 C 
ENDBRANCH   1  17
BRANCH   4  19
ATOM     19  O   UNL     1     -17.461   4.200  -6.400  0.00  0.00    -0.501 OA
ATOM     20  H   UNL     1     -17.817   3.470  -5.934  0.00  0.00    +0.292 HD
ENDBRANCH   4  19
BRANCH  10  21
ATOM     21  O   UNL     1     -17.917   7.564 -11.944  0.00  0.00    -0.491 OA
ATOM     22  C   UNL     1     -18.043   6.748 -13.104  0.00  0.00    +0.277 C 
ENDBRANCH  10  21
TORSDOF 4
ENDMDL
MODEL 9
REMARK VINA RESULT:      -5.7     12.353     13.429
REMARK  Name = min_compound954.pdb
REMARK  6 active torsions:
REMARK  status: ('A' for Active; 'I' for Inactive)
REMARK    1  A    between atoms: _1  and  _4
REMARK    2  A    between atoms: _1  and  _14
REMARK    3  A    between atoms: _2  and  _3
REMARK    4  A    between atoms: _2  and  _15
REMARK    5  A    between atoms: _9  and  _12
REMARK    6  A    between atoms: _13  and  _16
REMARK                            x       y       z     vdW  Elec       q    Type
REMARK                         _______ _______ _______ _____ _____    ______ ____
ROOT
ATOM      1  C   UNL     1     -19.339   5.671  -7.292  0.00  0.00    +0.163 A 
ATOM      2  C   UNL     1     -18.881   4.347  -7.300  0.00  0.00    +0.067 A 
ATOM      3  C   UNL     1     -17.969   3.995  -6.309  0.00  0.00    +0.098 A 
ATOM      4  C   UNL     1     -17.322   2.786  -6.022  0.00  0.00    +0.204 C 
ATOM      5  C   UNL     1     -16.485   3.053  -4.875  0.00  0.00    +0.261 C 
ATOM      6  N   UNL     1     -16.650   4.326  -4.511  0.00  0.00    -0.209 N 
ATOM      7  O   UNL     1     -16.037   4.966  -3.580  0.00  0.00    -0.549 OA
ATOM      8  C   UNL     1     -17.501   4.886  -5.333  0.00  0.00    +0.226 A 
ATOM      9  C   UNL     1     -17.949   6.216  -5.313  0.00  0.00    +0.128 A 
ATOM     10  C   UNL     1     -18.892   6.576  -6.290  0.00  0.00    +0.168 A 
ENDROOT
BRANCH   5  11
ATOM     11  C   UNL     1     -15.562   2.005  -4.201  0.00  0.00    +0.051 A 
ATOM     12  C   UNL     1     -16.050   0.757  -3.792  0.00  0.00    +0.014 A 
ATOM     13  C   UNL     1     -15.217  -0.187  -3.179  0.00  0.00    +0.001 A 
ATOM     14  C   UNL     1     -13.872   0.099  -2.966  0.00  0.00    +0.000 A 
ATOM     15  C   UNL     1     -13.366   1.332  -3.367  0.00  0.00    +0.001 A 
ATOM     16  C   UNL     1     -14.206   2.273  -3.976  0.00  0.00    +0.014 A 
ENDBRANCH   5  11
BRANCH   1  17
ATOM     17  O   UNL     1     -20.223   6.177  -8.223  0.00  0.00    -0.491 OA
ATOM     18  C   UNL     1     -19.685   6.433  -9.514  0.00  0.00    +0.277 C 
ENDBRANCH   1  17
BRANCH   4  19
ATOM     19  O   UNL     1     -17.533   1.656  -6.692  0.00  0.00    -0.501 OA
ATOM     20  H   UNL     1     -16.824   1.064  -6.848  0.00  0.00    +0.292 HD
ENDBRANCH   4  19
BRANCH  10  21
ATOM     21  O   UNL     1     -19.332   7.886  -6.241  0.00  0.00    -0.491 OA
ATOM     22  C   UNL     1     -19.393   8.349  -4.895  0.00  0.00    +0.277 C 
ENDBRANCH  10  21
TORSDOF 4
ENDMDL
