MODEL 1
REMARK VINA RESULT:      -8.6      0.000      0.000
REMARK  Name = min_compound925.pdb
REMARK  6 active torsions:
REMARK  status: ('A' for Active; 'I' for Inactive)
REMARK    1  A    between atoms: _1  and  _13
REMARK    2  A    between atoms: _6  and  _7
REMARK    3  A    between atoms: _9  and  _14
REMARK    4  A    between atoms: _12  and  _21
REMARK    5  A    between atoms: _14  and  _15
REMARK    6  A    between atoms: _21  and  _22
REMARK                            x       y       z     vdW  Elec       q    Type
REMARK                         _______ _______ _______ _____ _____    ______ ____
ROOT
ATOM      1  C   UNL     1     -12.893   3.978 -17.172  0.00  0.00    +0.127 C 
ATOM      2  N   UNL     1     -14.085   4.387 -16.328  0.00  0.00    -0.321 N 
ATOM      3  C   UNL     1     -14.669   5.671 -16.577  0.00  0.00    +0.076 C 
ATOM      4  C   UNL     1     -14.051   6.736 -17.139  0.00  0.00    -0.020 C 
ATOM      5  C   UNL     1     -12.649   6.506 -17.501  0.00  0.00    +0.004 C 
ATOM      6  C   UNL     1     -12.104   5.259 -17.488  0.00  0.00    +0.000 C 
ENDROOT
BRANCH   1  11
ATOM      7  C   UNL     1     -10.430   0.250 -16.180  0.00  0.00    -0.050 A 
ATOM      8  C   UNL     1      -9.621  -1.003 -16.016  0.00  0.00    +0.044 C 
ATOM      9  C   UNL     1     -11.336   0.345 -17.253  0.00  0.00    +0.004 A 
ATOM     10  C   UNL     1     -12.113   1.519 -17.528  0.00  0.00    +0.006 A 
ATOM     11  C   UNL     1     -12.071   2.693 -16.736  0.00  0.00    -0.023 A 
ATOM     12  C   UNL     1     -11.187   2.599 -15.647  0.00  0.00    +0.006 A 
ATOM     13  C   UNL     1     -10.383   1.418 -15.387  0.00  0.00    +0.004 A 
ENDBRANCH   1  11
BRANCH   2  14
ATOM     14  C   UNL     1     -14.878   3.253 -15.802  0.00  0.00    +0.140 C 
BRANCH  14  15
ATOM     15  C   UNL     1     -15.486   3.435 -14.423  0.00  0.00    -0.030 A 
ATOM     16  C   UNL     1     -16.650   2.734 -14.069  0.00  0.00    +0.005 A 
ATOM     17  C   UNL     1     -17.212   2.877 -12.800  0.00  0.00    +0.000 A 
ATOM     18  C   UNL     1     -16.618   3.727 -11.868  0.00  0.00    +0.000 A 
ATOM     19  C   UNL     1     -15.458   4.423 -12.203  0.00  0.00    +0.000 A 
ATOM     20  C   UNL     1     -14.887   4.272 -13.469  0.00  0.00    +0.005 A 
ENDBRANCH  14  15
ENDBRANCH   2  14
BRANCH   4  21
ATOM     21  C   UNL     1     -14.751   8.049 -17.331  0.00  0.00    +0.114 C 
BRANCH  21  22
ATOM     22  N   UNL     1     -15.451   9.361 -17.524  0.00  0.00    -0.326 NA
ATOM     23  H   UNL     1     -14.782  10.123 -17.408  0.00  0.00    +0.119 HD
ATOM     24  H   UNL     1     -15.851   9.399 -18.461  0.00  0.00    +0.119 HD
ENDBRANCH  21  22
ENDBRANCH   4  21
TORSDOF 5
ENDMDL
MODEL 2
REMARK VINA RESULT:      -7.8      1.779      5.686
REMARK  Name = min_compound925.pdb
REMARK  6 active torsions:
REMARK  status: ('A' for Active; 'I' for Inactive)
REMARK    1  A    between atoms: _1  and  _13
REMARK    2  A    between atoms: _6  and  _7
REMARK    3  A    between atoms: _9  and  _14
REMARK    4  A    between atoms: _12  and  _21
REMARK    5  A    between atoms: _14  and  _15
REMARK    6  A    between atoms: _21  and  _22
REMARK                            x       y       z     vdW  Elec       q    Type
REMARK                         _______ _______ _______ _____ _____    ______ ____
ROOT
ATOM      1  C   UNL     1     -14.442   4.762 -16.304  0.00  0.00    +0.127 C 
ATOM      2  N   UNL     1     -13.213   4.050 -16.837  0.00  0.00    -0.321 N 
ATOM      3  C   UNL     1     -12.722   4.439 -18.125  0.00  0.00    +0.076 C 
ATOM      4  C   UNL     1     -13.439   5.027 -19.111  0.00  0.00    -0.020 C 
ATOM      5  C   UNL     1     -14.849   5.258 -18.784  0.00  0.00    +0.004 C 
ATOM      6  C   UNL     1     -15.322   5.109 -17.517  0.00  0.00    +0.000 C 
ENDROOT
BRANCH   1  11
ATOM      7  C   UNL     1     -16.604   3.306 -12.543  0.00  0.00    -0.050 A 
ATOM      8  C   UNL     1     -17.319   2.986 -11.264  0.00  0.00    +0.044 C 
ATOM      9  C   UNL     1     -15.754   4.426 -12.590  0.00  0.00    +0.004 A 
ATOM     10  C   UNL     1     -15.069   4.848 -13.779  0.00  0.00    +0.006 A 
ATOM     11  C   UNL     1     -15.156   4.168 -15.019  0.00  0.00    -0.023 A 
ATOM     12  C   UNL     1     -15.985   3.033 -14.976  0.00  0.00    +0.006 A 
ATOM     13  C   UNL     1     -16.696   2.625 -13.777  0.00  0.00    +0.004 A 
ENDBRANCH   1  11
BRANCH   2  14
ATOM     14  C   UNL     1     -12.322   3.506 -15.788  0.00  0.00    +0.140 C 
BRANCH  14  15
ATOM     15  C   UNL     1     -11.830   2.084 -15.989  0.00  0.00    -0.030 A 
ATOM     16  C   UNL     1     -10.528   1.728 -15.599  0.00  0.00    +0.005 A 
ATOM     17  C   UNL     1     -10.067   0.421 -15.762  0.00  0.00    +0.000 A 
ATOM     18  C   UNL     1     -10.901  -0.547 -16.318  0.00  0.00    +0.000 A 
ATOM     19  C   UNL     1     -12.198  -0.210 -16.701  0.00  0.00    +0.000 A 
ATOM     20  C   UNL     1     -12.666   1.095 -16.529  0.00  0.00    +0.005 A 
ENDBRANCH  14  15
ENDBRANCH   2  14
BRANCH   4  21
ATOM     21  C   UNL     1     -12.829   5.371 -20.437  0.00  0.00    +0.114 C 
BRANCH  21  22
ATOM     22  N   UNL     1     -12.219   5.716 -21.763  0.00  0.00    -0.326 NA
ATOM     23  H   UNL     1     -12.955   5.987 -22.416  0.00  0.00    +0.119 HD
ATOM     24  H   UNL     1     -11.566   6.490 -21.646  0.00  0.00    +0.119 HD
ENDBRANCH  21  22
ENDBRANCH   4  21
TORSDOF 5
ENDMDL
MODEL 3
REMARK VINA RESULT:      -7.8      2.475      6.388
REMARK  Name = min_compound925.pdb
REMARK  6 active torsions:
REMARK  status: ('A' for Active; 'I' for Inactive)
REMARK    1  A    between atoms: _1  and  _13
REMARK    2  A    between atoms: _6  and  _7
REMARK    3  A    between atoms: _9  and  _14
REMARK    4  A    between atoms: _12  and  _21
REMARK    5  A    between atoms: _14  and  _15
REMARK    6  A    between atoms: _21  and  _22
REMARK                            x       y       z     vdW  Elec       q    Type
REMARK                         _______ _______ _______ _____ _____    ______ ____
ROOT
ATOM      1  C   UNL     1     -14.448   3.555 -17.583  0.00  0.00    +0.127 C 
ATOM      2  N   UNL     1     -13.369   2.512 -17.805  0.00  0.00    -0.321 N 
ATOM      3  C   UNL     1     -12.952   2.259 -19.152  0.00  0.00    +0.076 C 
ATOM      4  C   UNL     1     -13.677   2.491 -20.271  0.00  0.00    -0.020 C 
ATOM      5  C   UNL     1     -15.012   3.044 -20.029  0.00  0.00    +0.004 C 
ATOM      6  C   UNL     1     -15.384   3.501 -18.802  0.00  0.00    +0.000 C 
ENDROOT
BRANCH   1  11
ATOM      7  C   UNL     1     -16.292   3.573 -13.395  0.00  0.00    -0.050 A 
ATOM      8  C   UNL     1     -16.899   3.415 -12.033  0.00  0.00    +0.044 C 
ATOM      9  C   UNL     1     -16.569   2.611 -14.384  0.00  0.00    +0.004 A 
ATOM     10  C   UNL     1     -15.995   2.642 -15.699  0.00  0.00    +0.006 A 
ATOM     11  C   UNL     1     -15.111   3.655 -16.147  0.00  0.00    -0.023 A 
ATOM     12  C   UNL     1     -14.846   4.635 -15.173  0.00  0.00    +0.006 A 
ATOM     13  C   UNL     1     -15.410   4.586 -13.835  0.00  0.00    +0.004 A 
ENDBRANCH   1  11
BRANCH   2  14
ATOM     14  C   UNL     1     -12.460   2.320 -16.653  0.00  0.00    +0.140 C 
BRANCH  14  15
ATOM     15  C   UNL     1     -11.468   1.176 -16.758  0.00  0.00    -0.030 A 
ATOM     16  C   UNL     1     -10.172   1.412 -17.246  0.00  0.00    +0.005 A 
ATOM     17  C   UNL     1      -9.242   0.374 -17.333  0.00  0.00    +0.000 A 
ATOM     18  C   UNL     1      -9.597  -0.913 -16.934  0.00  0.00    +0.000 A 
ATOM     19  C   UNL     1     -10.877  -1.159 -16.440  0.00  0.00    +0.000 A 
ATOM     20  C   UNL     1     -11.805  -0.120 -16.341  0.00  0.00    +0.005 A 
ENDBRANCH  14  15
ENDBRANCH   2  14
BRANCH   4  21
ATOM     21  C   UNL     1     -13.151   2.165 -21.638  0.00  0.00    +0.114 C 
BRANCH  21  22
ATOM     22  N   UNL     1     -12.625   1.840 -23.004  0.00  0.00    -0.326 NA
ATOM     23  H   UNL     1     -13.405   1.628 -23.627  0.00  0.00    +0.119 HD
ATOM     24  H   UNL     1     -12.107   2.639 -23.369  0.00  0.00    +0.119 HD
ENDBRANCH  21  22
ENDBRANCH   4  21
TORSDOF 5
ENDMDL
MODEL 4
REMARK VINA RESULT:      -7.5      2.374      4.826
REMARK  Name = min_compound925.pdb
REMARK  6 active torsions:
REMARK  status: ('A' for Active; 'I' for Inactive)
REMARK    1  A    between atoms: _1  and  _13
REMARK    2  A    between atoms: _6  and  _7
REMARK    3  A    between atoms: _9  and  _14
REMARK    4  A    between atoms: _12  and  _21
REMARK    5  A    between atoms: _14  and  _15
REMARK    6  A    between atoms: _21  and  _22
REMARK                            x       y       z     vdW  Elec       q    Type
REMARK                         _______ _______ _______ _____ _____    ______ ____
ROOT
ATOM      1  C   UNL     1     -14.056   2.815 -16.374  0.00  0.00    +0.127 C 
ATOM      2  N   UNL     1     -14.549   3.115 -17.778  0.00  0.00    -0.321 N 
ATOM      3  C   UNL     1     -15.826   3.749 -17.915  0.00  0.00    +0.076 C 
ATOM      4  C   UNL     1     -16.835   3.718 -17.014  0.00  0.00    -0.020 C 
ATOM      5  C   UNL     1     -16.549   2.942 -15.805  0.00  0.00    +0.004 C 
ATOM      6  C   UNL     1     -15.294   2.499 -15.520  0.00  0.00    +0.000 C 
ENDROOT
BRANCH   1  11
ATOM      7  C   UNL     1     -10.430   0.030 -16.164  0.00  0.00    -0.050 A 
ATOM      8  C   UNL     1      -9.306  -0.960 -16.224  0.00  0.00    +0.044 C 
ATOM      9  C   UNL     1     -11.710  -0.359 -16.600  0.00  0.00    +0.004 A 
ATOM     10  C   UNL     1     -12.836   0.530 -16.634  0.00  0.00    +0.006 A 
ATOM     11  C   UNL     1     -12.786   1.880 -16.209  0.00  0.00    -0.023 A 
ATOM     12  C   UNL     1     -11.516   2.272 -15.748  0.00  0.00    +0.006 A 
ATOM     13  C   UNL     1     -10.373   1.377 -15.739  0.00  0.00    +0.004 A 
ENDBRANCH   1  11
BRANCH   2  14
ATOM     14  C   UNL     1     -13.471   3.295 -18.777  0.00  0.00    +0.140 C 
BRANCH  14  15
ATOM     15  C   UNL     1     -12.889   4.692 -18.900  0.00  0.00    -0.030 A 
ATOM     16  C   UNL     1     -12.363   5.337 -17.769  0.00  0.00    +0.005 A 
ATOM     17  C   UNL     1     -11.810   6.614 -17.868  0.00  0.00    +0.000 A 
ATOM     18  C   UNL     1     -11.777   7.264 -19.100  0.00  0.00    +0.000 A 
ATOM     19  C   UNL     1     -12.287   6.632 -20.233  0.00  0.00    +0.000 A 
ATOM     20  C   UNL     1     -12.831   5.349 -20.138  0.00  0.00    +0.005 A 
ENDBRANCH  14  15
ENDBRANCH   2  14
BRANCH   4  21
ATOM     21  C   UNL     1     -18.147   4.399 -17.270  0.00  0.00    +0.114 C 
BRANCH  21  22
ATOM     22  N   UNL     1     -19.459   5.079 -17.526  0.00  0.00    -0.326 NA
ATOM     23  H   UNL     1     -20.215   4.523 -17.126  0.00  0.00    +0.119 HD
ATOM     24  H   UNL     1     -19.452   6.004 -17.095  0.00  0.00    +0.119 HD
ENDBRANCH  21  22
ENDBRANCH   4  21
TORSDOF 5
ENDMDL
MODEL 5
REMARK VINA RESULT:      -7.4      2.077      5.813
REMARK  Name = min_compound925.pdb
REMARK  6 active torsions:
REMARK  status: ('A' for Active; 'I' for Inactive)
REMARK    1  A    between atoms: _1  and  _13
REMARK    2  A    between atoms: _6  and  _7
REMARK    3  A    between atoms: _9  and  _14
REMARK    4  A    between atoms: _12  and  _21
REMARK    5  A    between atoms: _14  and  _15
REMARK    6  A    between atoms: _21  and  _22
REMARK                            x       y       z     vdW  Elec       q    Type
REMARK                         _______ _______ _______ _____ _____    ______ ____
ROOT
ATOM      1  C   UNL     1     -13.933   4.594 -17.349  0.00  0.00    +0.127 C 
ATOM      2  N   UNL     1     -13.288   4.188 -16.037  0.00  0.00    -0.321 N 
ATOM      3  C   UNL     1     -14.138   3.671 -15.007  0.00  0.00    +0.076 C 
ATOM      4  C   UNL     1     -15.466   3.900 -14.874  0.00  0.00    -0.020 C 
ATOM      5  C   UNL     1     -16.038   4.775 -15.901  0.00  0.00    +0.004 C 
ATOM      6  C   UNL     1     -15.338   5.122 -17.015  0.00  0.00    +0.000 C 
ENDROOT
BRANCH   1  11
ATOM      7  C   UNL     1     -11.648   6.962 -20.528  0.00  0.00    -0.050 A 
ATOM      8  C   UNL     1     -11.012   7.688 -21.676  0.00  0.00    +0.044 C 
ATOM      9  C   UNL     1     -12.367   5.779 -20.779  0.00  0.00    +0.004 A 
ATOM     10  C   UNL     1     -13.056   5.043 -19.758  0.00  0.00    +0.006 A 
ATOM     11  C   UNL     1     -13.064   5.413 -18.391  0.00  0.00    -0.023 A 
ATOM     12  C   UNL     1     -12.327   6.581 -18.126  0.00  0.00    +0.006 A 
ATOM     13  C   UNL     1     -11.651   7.337 -19.165  0.00  0.00    +0.004 A 
ENDBRANCH   1  11
BRANCH   2  14
ATOM     14  C   UNL     1     -11.866   3.794 -16.153  0.00  0.00    +0.140 C 
BRANCH  14  15
ATOM     15  C   UNL     1     -11.579   2.305 -16.203  0.00  0.00    -0.030 A 
ATOM     16  C   UNL     1     -12.432   1.447 -16.917  0.00  0.00    +0.005 A 
ATOM     17  C   UNL     1     -12.173   0.078 -16.987  0.00  0.00    +0.000 A 
ATOM     18  C   UNL     1     -11.058  -0.453 -16.341  0.00  0.00    +0.000 A 
ATOM     19  C   UNL     1     -10.199   0.387 -15.635  0.00  0.00    +0.000 A 
ATOM     20  C   UNL     1     -10.450   1.759 -15.574  0.00  0.00    +0.005 A 
ENDBRANCH  14  15
ENDBRANCH   2  14
BRANCH   4  21
ATOM     21  C   UNL     1     -16.260   3.326 -13.739  0.00  0.00    +0.114 C 
BRANCH  21  22
ATOM     22  N   UNL     1     -17.054   2.752 -12.603  0.00  0.00    -0.326 NA
ATOM     23  H   UNL     1     -18.050   2.859 -12.796  0.00  0.00    +0.119 HD
ATOM     24  H   UNL     1     -16.832   1.762 -12.499  0.00  0.00    +0.119 HD
ENDBRANCH  21  22
ENDBRANCH   4  21
TORSDOF 5
ENDMDL
MODEL 6
REMARK VINA RESULT:      -7.3      1.918      5.064
REMARK  Name = min_compound925.pdb
REMARK  6 active torsions:
REMARK  status: ('A' for Active; 'I' for Inactive)
REMARK    1  A    between atoms: _1  and  _13
REMARK    2  A    between atoms: _6  and  _7
REMARK    3  A    between atoms: _9  and  _14
REMARK    4  A    between atoms: _12  and  _21
REMARK    5  A    between atoms: _14  and  _15
REMARK    6  A    between atoms: _21  and  _22
REMARK                            x       y       z     vdW  Elec       q    Type
REMARK                         _______ _______ _______ _____ _____    ______ ____
ROOT
ATOM      1  C   UNL     1     -13.401   3.777 -15.733  0.00  0.00    +0.127 C 
ATOM      2  N   UNL     1     -13.489   4.907 -16.742  0.00  0.00    -0.321 N 
ATOM      3  C   UNL     1     -14.526   5.879 -16.567  0.00  0.00    +0.076 C 
ATOM      4  C   UNL     1     -15.691   5.695 -15.903  0.00  0.00    -0.020 C 
ATOM      5  C   UNL     1     -15.863   4.355 -15.335  0.00  0.00    +0.004 C 
ATOM      6  C   UNL     1     -14.837   3.464 -15.282  0.00  0.00    +0.000 C 
ENDROOT
BRANCH   1  11
ATOM      7  C   UNL     1     -10.599   0.219 -16.390  0.00  0.00    -0.050 A 
ATOM      8  C   UNL     1      -9.625  -0.920 -16.454  0.00  0.00    +0.044 C 
ATOM      9  C   UNL     1     -10.292   1.339 -15.597  0.00  0.00    +0.004 A 
ATOM     10  C   UNL     1     -11.180   2.454 -15.426  0.00  0.00    +0.006 A 
ATOM     11  C   UNL     1     -12.445   2.555 -16.057  0.00  0.00    -0.023 A 
ATOM     12  C   UNL     1     -12.750   1.450 -16.872  0.00  0.00    +0.006 A 
ATOM     13  C   UNL     1     -11.859   0.313 -17.022  0.00  0.00    +0.004 A 
ENDBRANCH   1  11
BRANCH   2  14
ATOM     14  C   UNL     1     -12.204   5.239 -17.399  0.00  0.00    +0.140 C 
BRANCH  14  15
ATOM     15  C   UNL     1     -12.275   5.629 -18.864  0.00  0.00    -0.030 A 
ATOM     16  C   UNL     1     -11.637   6.797 -19.313  0.00  0.00    +0.005 A 
ATOM     17  C   UNL     1     -11.679   7.161 -20.660  0.00  0.00    +0.000 A 
ATOM     18  C   UNL     1     -12.361   6.362 -21.575  0.00  0.00    +0.000 A 
ATOM     19  C   UNL     1     -12.991   5.195 -21.145  0.00  0.00    +0.000 A 
ATOM     20  C   UNL     1     -12.941   4.823 -19.800  0.00  0.00    +0.005 A 
ENDBRANCH  14  15
ENDBRANCH   2  14
BRANCH   4  21
ATOM     21  C   UNL     1     -16.724   6.777 -15.801  0.00  0.00    +0.114 C 
BRANCH  21  22
ATOM     22  N   UNL     1     -17.757   7.860 -15.698  0.00  0.00    -0.326 NA
ATOM     23  H   UNL     1     -17.490   8.517 -14.965  0.00  0.00    +0.119 HD
ATOM     24  H   UNL     1     -17.823   8.353 -16.589  0.00  0.00    +0.119 HD
ENDBRANCH  21  22
ENDBRANCH   4  21
TORSDOF 5
ENDMDL
MODEL 7
REMARK VINA RESULT:      -7.3      1.978      5.757
REMARK  Name = min_compound925.pdb
REMARK  6 active torsions:
REMARK  status: ('A' for Active; 'I' for Inactive)
REMARK    1  A    between atoms: _1  and  _13
REMARK    2  A    between atoms: _6  and  _7
REMARK    3  A    between atoms: _9  and  _14
REMARK    4  A    between atoms: _12  and  _21
REMARK    5  A    between atoms: _14  and  _15
REMARK    6  A    between atoms: _21  and  _22
REMARK                            x       y       z     vdW  Elec       q    Type
REMARK                         _______ _______ _______ _____ _____    ______ ____
ROOT
ATOM      1  C   UNL     1     -14.837   5.018 -16.546  0.00  0.00    +0.127 C 
ATOM      2  N   UNL     1     -14.598   3.648 -15.941  0.00  0.00    -0.321 N 
ATOM      3  C   UNL     1     -15.383   3.275 -14.802  0.00  0.00    +0.076 C 
ATOM      4  C   UNL     1     -15.982   4.120 -13.932  0.00  0.00    -0.020 C 
ATOM      5  C   UNL     1     -15.770   5.541 -14.220  0.00  0.00    +0.004 C 
ATOM      6  C   UNL     1     -15.221   5.959 -15.392  0.00  0.00    +0.000 C 
ENDROOT
BRANCH   1  11
ATOM      7  C   UNL     1     -12.070   6.699 -19.780  0.00  0.00    -0.050 A 
ATOM      8  C   UNL     1     -11.298   7.278 -20.929  0.00  0.00    +0.044 C 
ATOM      9  C   UNL     1     -13.284   6.036 -20.036  0.00  0.00    +0.004 A 
ATOM     10  C   UNL     1     -14.123   5.497 -19.004  0.00  0.00    +0.006 A 
ATOM     11  C   UNL     1     -13.805   5.553 -17.624  0.00  0.00    -0.023 A 
ATOM     12  C   UNL     1     -12.580   6.193 -17.360  0.00  0.00    +0.006 A 
ATOM     13  C   UNL     1     -11.747   6.758 -18.406  0.00  0.00    +0.004 A 
ENDBRANCH   1  11
BRANCH   2  14
ATOM     14  C   UNL     1     -14.070   2.644 -16.893  0.00  0.00    +0.140 C 
BRANCH  14  15
ATOM     15  C   UNL     1     -12.736   2.013 -16.539  0.00  0.00    -0.030 A 
ATOM     16  C   UNL     1     -11.770   2.755 -15.838  0.00  0.00    +0.005 A 
ATOM     17  C   UNL     1     -10.545   2.184 -15.490  0.00  0.00    +0.000 A 
ATOM     18  C   UNL     1     -10.269   0.863 -15.840  0.00  0.00    +0.000 A 
ATOM     19  C   UNL     1     -11.221   0.113 -16.528  0.00  0.00    +0.000 A 
ATOM     20  C   UNL     1     -12.452   0.679 -16.867  0.00  0.00    +0.005 A 
ENDBRANCH  14  15
ENDBRANCH   2  14
BRANCH   4  21
ATOM     21  C   UNL     1     -16.763   3.621 -12.753  0.00  0.00    +0.114 C 
BRANCH  21  22
ATOM     22  N   UNL     1     -17.545   3.123 -11.574  0.00  0.00    -0.326 NA
ATOM     23  H   UNL     1     -18.463   2.804 -11.885  0.00  0.00    +0.119 HD
ATOM     24  H   UNL     1     -17.045   2.347 -11.138  0.00  0.00    +0.119 HD
ENDBRANCH  21  22
ENDBRANCH   4  21
TORSDOF 5
ENDMDL
MODEL 8
REMARK VINA RESULT:      -7.3      2.781      5.866
REMARK  Name = min_compound925.pdb
REMARK  6 active torsions:
REMARK  status: ('A' for Active; 'I' for Inactive)
REMARK    1  A    between atoms: _1  and  _13
REMARK    2  A    between atoms: _6  and  _7
REMARK    3  A    between atoms: _9  and  _14
REMARK    4  A    between atoms: _12  and  _21
REMARK    5  A    between atoms: _14  and  _15
REMARK    6  A    between atoms: _21  and  _22
REMARK                            x       y       z     vdW  Elec       q    Type
REMARK                         _______ _______ _______ _____ _____    ______ ____
ROOT
ATOM      1  C   UNL     1     -14.166   3.079 -17.877  0.00  0.00    +0.127 C 
ATOM      2  N   UNL     1     -13.085   3.591 -16.943  0.00  0.00    -0.321 N 
ATOM      3  C   UNL     1     -13.427   3.777 -15.565  0.00  0.00    +0.076 C 
ATOM      4  C   UNL     1     -14.670   3.982 -15.070  0.00  0.00    -0.020 C 
ATOM      5  C   UNL     1     -15.731   4.018 -16.080  0.00  0.00    +0.004 C 
ATOM      6  C   UNL     1     -15.504   3.640 -17.368  0.00  0.00    +0.000 C 
ENDROOT
BRANCH   1  11
ATOM      7  C   UNL     1     -13.169   3.397 -22.332  0.00  0.00    -0.050 A 
ATOM      8  C   UNL     1     -12.768   3.642 -23.756  0.00  0.00    +0.044 C 
ATOM      9  C   UNL     1     -13.401   4.497 -21.487  0.00  0.00    +0.004 A 
ATOM     10  C   UNL     1     -13.735   4.369 -20.097  0.00  0.00    +0.006 A 
ATOM     11  C   UNL     1     -13.892   3.124 -19.438  0.00  0.00    -0.023 A 
ATOM     12  C   UNL     1     -13.686   2.018 -20.281  0.00  0.00    +0.006 A 
ATOM     13  C   UNL     1     -13.324   2.153 -21.681  0.00  0.00    +0.004 A 
ENDBRANCH   1  11
BRANCH   2  14
ATOM     14  C   UNL     1     -11.705   3.271 -17.373  0.00  0.00    +0.140 C 
BRANCH  14  15
ATOM     15  C   UNL     1     -11.179   1.900 -16.990  0.00  0.00    -0.030 A 
ATOM     16  C   UNL     1     -11.339   0.814 -17.867  0.00  0.00    +0.005 A 
ATOM     17  C   UNL     1     -10.846  -0.449 -17.536  0.00  0.00    +0.000 A 
ATOM     18  C   UNL     1     -10.188  -0.643 -16.324  0.00  0.00    +0.000 A 
ATOM     19  C   UNL     1     -10.014   0.427 -15.447  0.00  0.00    +0.000 A 
ATOM     20  C   UNL     1     -10.497   1.694 -15.781  0.00  0.00    +0.005 A 
ENDBRANCH  14  15
ENDBRANCH   2  14
BRANCH   4  21
ATOM     21  C   UNL     1     -14.915   4.190 -13.605  0.00  0.00    +0.114 C 
BRANCH  21  22
ATOM     22  N   UNL     1     -15.160   4.399 -12.139  0.00  0.00    -0.326 NA
ATOM     23  H   UNL     1     -14.802   5.314 -11.862  0.00  0.00    +0.119 HD
ATOM     24  H   UNL     1     -16.162   4.355 -11.952  0.00  0.00    +0.119 HD
ENDBRANCH  21  22
ENDBRANCH   4  21
TORSDOF 5
ENDMDL
MODEL 9
REMARK VINA RESULT:      -7.1      5.701      9.184
REMARK  Name = min_compound925.pdb
REMARK  6 active torsions:
REMARK  status: ('A' for Active; 'I' for Inactive)
REMARK    1  A    between atoms: _1  and  _13
REMARK    2  A    between atoms: _6  and  _7
REMARK    3  A    between atoms: _9  and  _14
REMARK    4  A    between atoms: _12  and  _21
REMARK    5  A    between atoms: _14  and  _15
REMARK    6  A    between atoms: _21  and  _22
REMARK                            x       y       z     vdW  Elec       q    Type
REMARK                         _______ _______ _______ _____ _____    ______ ____
ROOT
ATOM      1  C   UNL     1     -17.380   4.308  -9.019  0.00  0.00    +0.127 C 
ATOM      2  N   UNL     1     -16.931   3.246  -8.034  0.00  0.00    -0.321 N 
ATOM      3  C   UNL     1     -17.268   3.430  -6.654  0.00  0.00    +0.076 C 
ATOM      4  C   UNL     1     -17.538   4.609  -6.047  0.00  0.00    -0.020 C 
ATOM      5  C   UNL     1     -17.454   5.780  -6.925  0.00  0.00    +0.004 C 
ATOM      6  C   UNL     1     -17.350   5.654  -8.275  0.00  0.00    +0.000 C 
ENDROOT
BRANCH   1  11
ATOM      7  C   UNL     1     -15.432   4.102 -13.155  0.00  0.00    -0.050 A 
ATOM      8  C   UNL     1     -14.650   4.042 -14.433  0.00  0.00    +0.044 C 
ATOM      9  C   UNL     1     -14.896   4.795 -12.055  0.00  0.00    +0.004 A 
ATOM     10  C   UNL     1     -15.539   4.863 -10.774  0.00  0.00    +0.006 A 
ATOM     11  C   UNL     1     -16.791   4.264 -10.490  0.00  0.00    -0.023 A 
ATOM     12  C   UNL     1     -17.348   3.589 -11.592  0.00  0.00    +0.006 A 
ATOM     13  C   UNL     1     -16.681   3.501 -12.879  0.00  0.00    +0.004 A 
ENDBRANCH   1  11
BRANCH   2  14
ATOM     14  C   UNL     1     -16.754   1.900  -8.626  0.00  0.00    +0.140 C 
BRANCH  14  15
ATOM     15  C   UNL     1     -15.999   0.886  -7.786  0.00  0.00    -0.030 A 
ATOM     16  C   UNL     1     -16.556  -0.380  -7.542  0.00  0.00    +0.005 A 
ATOM     17  C   UNL     1     -15.867  -1.329  -6.786  0.00  0.00    +0.000 A 
ATOM     18  C   UNL     1     -14.612  -1.024  -6.263  0.00  0.00    +0.000 A 
ATOM     19  C   UNL     1     -14.043   0.225  -6.504  0.00  0.00    +0.000 A 
ATOM     20  C   UNL     1     -14.726   1.172  -7.270  0.00  0.00    +0.005 A 
ENDBRANCH  14  15
ENDBRANCH   2  14
BRANCH   4  21
ATOM     21  C   UNL     1     -17.856   4.693  -4.583  0.00  0.00    +0.114 C 
BRANCH  21  22
ATOM     22  N   UNL     1     -18.175   4.776  -3.120  0.00  0.00    -0.326 NA
ATOM     23  H   UNL     1     -17.398   4.392  -2.581  0.00  0.00    +0.119 HD
ATOM     24  H   UNL     1     -18.321   5.752  -2.859  0.00  0.00    +0.119 HD
ENDBRANCH  21  22
ENDBRANCH   4  21
TORSDOF 5
ENDMDL
