MODEL 1
REMARK VINA RESULT:      -7.6      0.000      0.000
REMARK  Name = min_compound949.pdb
REMARK  5 active torsions:
REMARK  status: ('A' for Active; 'I' for Inactive)
REMARK    1  A    between atoms: _1  and  _18
REMARK    2  A    between atoms: _2  and  _17
REMARK    3  A    between atoms: _3  and  _19
REMARK    4  A    between atoms: _10  and  _16
REMARK    5  A    between atoms: _16  and  _17
REMARK                            x       y       z     vdW  Elec       q    Type
REMARK                         _______ _______ _______ _____ _____    ______ ____
ROOT
ATOM      1  C   UNL     1     -12.896   6.436 -17.573  0.00  0.00    +0.049 A 
ATOM      2  C   UNL     1     -11.836   7.046 -18.467  0.00  0.00    +0.066 C 
ATOM      3  C   UNL     1     -12.769   4.978 -17.166  0.00  0.00    +0.035 A 
ATOM      4  C   UNL     1     -13.736   4.554 -16.326  0.00  0.00    +0.220 A 
ATOM      5  N   UNL     1     -14.762   5.419 -15.929  0.00  0.00    -0.182 N 
ATOM      6  N   UNL     1     -15.801   5.118 -15.102  0.00  0.00    -0.170 NA
ATOM      7  C   UNL     1     -16.506   6.251 -15.053  0.00  0.00    +0.137 A 
ATOM      8  C   UNL     1     -15.945   7.279 -15.827  0.00  0.00    +0.069 A 
ATOM      9  C   UNL     1     -14.816   6.726 -16.385  0.00  0.00    +0.159 A 
ATOM     10  N   UNL     1     -13.862   7.237 -17.210  0.00  0.00    -0.232 NA
ENDROOT
BRANCH   4  11
ATOM     11  O   UNL     1     -13.759   3.254 -15.836  0.00  0.00    -0.492 OA
ATOM     12  H   UNL     1     -12.996   2.802 -16.260  0.00  0.00    +0.294 HD
ENDBRANCH   4  11
BRANCH   3  13
ATOM     13  C   UNL     1     -11.657   4.089 -17.666  0.00  0.00    +0.047 C 
BRANCH  13  14
ATOM     14  C   UNL     1     -10.409   4.015 -16.669  0.00  0.00    +0.040 C 
BRANCH  14  15
ATOM     15  C   UNL     1     -10.536   1.995 -16.696  0.00  0.00    -0.047 A 
ATOM     16  C   UNL     1      -9.821   1.363 -17.719  0.00  0.00    +0.003 A 
ATOM     17  C   UNL     1      -9.337   0.087 -17.454  0.00  0.00    +0.000 A 
ATOM     18  C   UNL     1      -9.537  -0.500 -16.195  0.00  0.00    +0.000 A 
ATOM     19  C   UNL     1     -10.228   0.182 -15.182  0.00  0.00    +0.000 A 
ATOM     20  C   UNL     1     -10.718   1.461 -15.414  0.00  0.00    +0.003 A 
ENDBRANCH  14  15
ENDBRANCH  13  14
ENDBRANCH   3  13
TORSDOF 4
ENDMDL
MODEL 2
REMARK VINA RESULT:      -7.5      1.247      2.301
REMARK  Name = min_compound949.pdb
REMARK  5 active torsions:
REMARK  status: ('A' for Active; 'I' for Inactive)
REMARK    1  A    between atoms: _1  and  _18
REMARK    2  A    between atoms: _2  and  _17
REMARK    3  A    between atoms: _3  and  _19
REMARK    4  A    between atoms: _10  and  _16
REMARK    5  A    between atoms: _16  and  _17
REMARK                            x       y       z     vdW  Elec       q    Type
REMARK                         _______ _______ _______ _____ _____    ______ ____
ROOT
ATOM      1  C   UNL     1     -13.943   4.384 -16.308  0.00  0.00    +0.049 A 
ATOM      2  C   UNL     1     -13.973   2.923 -15.912  0.00  0.00    +0.066 C 
ATOM      3  C   UNL     1     -12.808   4.890 -17.182  0.00  0.00    +0.035 A 
ATOM      4  C   UNL     1     -12.910   6.192 -17.519  0.00  0.00    +0.220 A 
ATOM      5  N   UNL     1     -13.973   6.968 -17.044  0.00  0.00    -0.182 N 
ATOM      6  N   UNL     1     -14.188   8.290 -17.295  0.00  0.00    -0.170 NA
ATOM      7  C   UNL     1     -15.300   8.566 -16.611  0.00  0.00    +0.137 A 
ATOM      8  C   UNL     1     -15.812   7.453 -15.925  0.00  0.00    +0.069 A 
ATOM      9  C   UNL     1     -14.945   6.427 -16.218  0.00  0.00    +0.159 A 
ATOM     10  N   UNL     1     -14.928   5.115 -15.856  0.00  0.00    -0.232 NA
ENDROOT
BRANCH   4  11
ATOM     11  O   UNL     1     -11.969   6.812 -18.332  0.00  0.00    -0.492 OA
ATOM     12  H   UNL     1     -11.695   7.620 -17.844  0.00  0.00    +0.294 HD
ENDBRANCH   4  11
BRANCH   3  13
ATOM     13  C   UNL     1     -11.668   4.005 -17.624  0.00  0.00    +0.047 C 
BRANCH  13  14
ATOM     14  C   UNL     1     -10.472   3.938 -16.564  0.00  0.00    +0.040 C 
BRANCH  14  15
ATOM     15  C   UNL     1     -10.535   1.917 -16.656  0.00  0.00    -0.047 A 
ATOM     16  C   UNL     1      -9.813   1.342 -17.706  0.00  0.00    +0.003 A 
ATOM     17  C   UNL     1      -9.285   0.074 -17.488  0.00  0.00    +0.000 A 
ATOM     18  C   UNL     1      -9.451  -0.559 -16.247  0.00  0.00    +0.000 A 
ATOM     19  C   UNL     1     -10.151   0.067 -15.205  0.00  0.00    +0.000 A 
ATOM     20  C   UNL     1     -10.685   1.336 -15.390  0.00  0.00    +0.003 A 
ENDBRANCH  14  15
ENDBRANCH  13  14
ENDBRANCH   3  13
TORSDOF 4
ENDMDL
MODEL 3
REMARK VINA RESULT:      -7.2      3.104      6.473
REMARK  Name = min_compound949.pdb
REMARK  5 active torsions:
REMARK  status: ('A' for Active; 'I' for Inactive)
REMARK    1  A    between atoms: _1  and  _18
REMARK    2  A    between atoms: _2  and  _17
REMARK    3  A    between atoms: _3  and  _19
REMARK    4  A    between atoms: _10  and  _16
REMARK    5  A    between atoms: _16  and  _17
REMARK                            x       y       z     vdW  Elec       q    Type
REMARK                         _______ _______ _______ _____ _____    ______ ____
ROOT
ATOM      1  C   UNL     1     -12.324   2.226 -18.117  0.00  0.00    +0.049 A 
ATOM      2  C   UNL     1     -13.336   2.776 -19.100  0.00  0.00    +0.066 C 
ATOM      3  C   UNL     1     -11.806   3.126 -17.008  0.00  0.00    +0.035 A 
ATOM      4  C   UNL     1     -10.952   2.519 -16.159  0.00  0.00    +0.220 A 
ATOM      5  N   UNL     1     -10.584   1.183 -16.355  0.00  0.00    -0.182 N 
ATOM      6  N   UNL     1      -9.726   0.457 -15.585  0.00  0.00    -0.170 NA
ATOM      7  C   UNL     1      -9.690  -0.734 -16.187  0.00  0.00    +0.137 A 
ATOM      8  C   UNL     1     -10.507  -0.796 -17.328  0.00  0.00    +0.069 A 
ATOM      9  C   UNL     1     -11.080   0.450 -17.420  0.00  0.00    +0.159 A 
ATOM     10  N   UNL     1     -11.968   0.982 -18.304  0.00  0.00    -0.232 NA
ENDROOT
BRANCH   4  11
ATOM     11  O   UNL     1     -10.400   3.190 -15.074  0.00  0.00    -0.492 OA
ATOM     12  H   UNL     1      -9.881   2.512 -14.586  0.00  0.00    +0.294 HD
ENDBRANCH   4  11
BRANCH   3  13
ATOM     13  C   UNL     1     -12.214   4.574 -16.881  0.00  0.00    +0.047 C 
BRANCH  13  14
ATOM     14  C   UNL     1     -10.997   5.592 -17.078  0.00  0.00    +0.040 C 
BRANCH  14  15
ATOM     15  C   UNL     1     -12.102   6.614 -18.431  0.00  0.00    -0.047 A 
ATOM     16  C   UNL     1     -11.952   6.205 -19.760  0.00  0.00    +0.003 A 
ATOM     17  C   UNL     1     -13.052   6.364 -20.597  0.00  0.00    +0.000 A 
ATOM     18  C   UNL     1     -14.256   6.878 -20.094  0.00  0.00    +0.000 A 
ATOM     19  C   UNL     1     -14.378   7.243 -18.745  0.00  0.00    +0.000 A 
ATOM     20  C   UNL     1     -13.300   7.090 -17.883  0.00  0.00    +0.003 A 
ENDBRANCH  14  15
ENDBRANCH  13  14
ENDBRANCH   3  13
TORSDOF 4
ENDMDL
MODEL 4
REMARK VINA RESULT:      -7.1      3.182      6.460
REMARK  Name = min_compound949.pdb
REMARK  5 active torsions:
REMARK  status: ('A' for Active; 'I' for Inactive)
REMARK    1  A    between atoms: _1  and  _18
REMARK    2  A    between atoms: _2  and  _17
REMARK    3  A    between atoms: _3  and  _19
REMARK    4  A    between atoms: _10  and  _16
REMARK    5  A    between atoms: _16  and  _17
REMARK                            x       y       z     vdW  Elec       q    Type
REMARK                         _______ _______ _______ _____ _____    ______ ____
ROOT
ATOM      1  C   UNL     1     -10.848   3.285 -16.479  0.00  0.00    +0.049 A 
ATOM      2  C   UNL     1     -10.541   4.760 -16.331  0.00  0.00    +0.066 C 
ATOM      3  C   UNL     1     -12.236   2.780 -16.124  0.00  0.00    +0.035 A 
ATOM      4  C   UNL     1     -12.417   1.462 -16.345  0.00  0.00    +0.220 A 
ATOM      5  N   UNL     1     -11.366   0.671 -16.827  0.00  0.00    -0.182 N 
ATOM      6  N   UNL     1     -11.409  -0.666 -17.080  0.00  0.00    -0.170 NA
ATOM      7  C   UNL     1     -10.172  -0.950 -17.495  0.00  0.00    +0.137 A 
ATOM      8  C   UNL     1      -9.331   0.174 -17.518  0.00  0.00    +0.069 A 
ATOM      9  C   UNL     1     -10.119   1.215 -17.087  0.00  0.00    +0.159 A 
ATOM     10  N   UNL     1      -9.867   2.542 -16.917  0.00  0.00    -0.232 NA
ENDROOT
BRANCH   4  11
ATOM     11  O   UNL     1     -13.634   0.839 -16.096  0.00  0.00    -0.492 OA
ATOM     12  H   UNL     1     -13.438   0.142 -15.432  0.00  0.00    +0.294 HD
ENDBRANCH   4  11
BRANCH   3  13
ATOM     13  C   UNL     1     -13.311   3.682 -15.568  0.00  0.00    +0.047 C 
BRANCH  13  14
ATOM     14  C   UNL     1     -14.396   4.119 -16.658  0.00  0.00    +0.040 C 
BRANCH  14  15
ATOM     15  C   UNL     1     -15.823   4.069 -15.224  0.00  0.00    -0.047 A 
ATOM     16  C   UNL     1     -16.380   2.811 -14.975  0.00  0.00    +0.003 A 
ATOM     17  C   UNL     1     -16.831   2.565 -13.683  0.00  0.00    +0.000 A 
ATOM     18  C   UNL     1     -16.686   3.540 -12.684  0.00  0.00    +0.000 A 
ATOM     19  C   UNL     1     -16.088   4.778 -12.965  0.00  0.00    +0.000 A 
ATOM     20  C   UNL     1     -15.621   5.050 -14.245  0.00  0.00    +0.003 A 
ENDBRANCH  14  15
ENDBRANCH  13  14
ENDBRANCH   3  13
TORSDOF 4
ENDMDL
MODEL 5
REMARK VINA RESULT:      -7.1      2.821      6.724
REMARK  Name = min_compound949.pdb
REMARK  5 active torsions:
REMARK  status: ('A' for Active; 'I' for Inactive)
REMARK    1  A    between atoms: _1  and  _18
REMARK    2  A    between atoms: _2  and  _17
REMARK    3  A    between atoms: _3  and  _19
REMARK    4  A    between atoms: _10  and  _16
REMARK    5  A    between atoms: _16  and  _17
REMARK                            x       y       z     vdW  Elec       q    Type
REMARK                         _______ _______ _______ _____ _____    ______ ____
ROOT
ATOM      1  C   UNL     1     -11.008   3.222 -16.668  0.00  0.00    +0.049 A 
ATOM      2  C   UNL     1     -10.794   4.719 -16.611  0.00  0.00    +0.066 C 
ATOM      3  C   UNL     1     -12.370   2.655 -16.303  0.00  0.00    +0.035 A 
ATOM      4  C   UNL     1     -12.466   1.317 -16.441  0.00  0.00    +0.220 A 
ATOM      5  N   UNL     1     -11.360   0.564 -16.854  0.00  0.00    -0.182 N 
ATOM      6  N   UNL     1     -11.316  -0.787 -17.020  0.00  0.00    -0.170 NA
ATOM      7  C   UNL     1     -10.056  -1.020 -17.396  0.00  0.00    +0.137 A 
ATOM      8  C   UNL     1      -9.285   0.151 -17.479  0.00  0.00    +0.069 A 
ATOM      9  C   UNL     1     -10.144   1.166 -17.129  0.00  0.00    +0.159 A 
ATOM     10  N   UNL     1      -9.975   2.514 -17.041  0.00  0.00    -0.232 NA
ENDROOT
BRANCH   4  11
ATOM     11  O   UNL     1     -13.648   0.637 -16.172  0.00  0.00    -0.492 OA
ATOM     12  H   UNL     1     -14.107   0.562 -17.038  0.00  0.00    +0.294 HD
ENDBRANCH   4  11
BRANCH   3  13
ATOM     13  C   UNL     1     -13.508   3.523 -15.824  0.00  0.00    +0.047 C 
BRANCH  13  14
ATOM     14  C   UNL     1     -14.563   3.873 -16.974  0.00  0.00    +0.040 C 
BRANCH  14  15
ATOM     15  C   UNL     1     -14.367   5.837 -16.524  0.00  0.00    -0.047 A 
ATOM     16  C   UNL     1     -13.793   6.627 -17.524  0.00  0.00    +0.003 A 
ATOM     17  C   UNL     1     -14.191   7.959 -17.582  0.00  0.00    +0.000 A 
ATOM     18  C   UNL     1     -15.156   8.449 -16.689  0.00  0.00    +0.000 A 
ATOM     19  C   UNL     1     -15.736   7.615 -15.723  0.00  0.00    +0.000 A 
ATOM     20  C   UNL     1     -15.363   6.278 -15.644  0.00  0.00    +0.003 A 
ENDBRANCH  14  15
ENDBRANCH  13  14
ENDBRANCH   3  13
TORSDOF 4
ENDMDL
MODEL 6
REMARK VINA RESULT:      -7.1      3.070      6.645
REMARK  Name = min_compound949.pdb
REMARK  5 active torsions:
REMARK  status: ('A' for Active; 'I' for Inactive)
REMARK    1  A    between atoms: _1  and  _18
REMARK    2  A    between atoms: _2  and  _17
REMARK    3  A    between atoms: _3  and  _19
REMARK    4  A    between atoms: _10  and  _16
REMARK    5  A    between atoms: _16  and  _17
REMARK                            x       y       z     vdW  Elec       q    Type
REMARK                         _______ _______ _______ _____ _____    ______ ____
ROOT
ATOM      1  C   UNL     1     -12.502   1.836 -18.379  0.00  0.00    +0.049 A 
ATOM      2  C   UNL     1     -13.433   2.203 -19.514  0.00  0.00    +0.066 C 
ATOM      3  C   UNL     1     -12.502   2.684 -17.119  0.00  0.00    +0.035 A 
ATOM      4  C   UNL     1     -11.675   2.236 -16.151  0.00  0.00    +0.220 A 
ATOM      5  N   UNL     1     -10.883   1.101 -16.363  0.00  0.00    -0.182 N 
ATOM      6  N   UNL     1     -10.002   0.552 -15.481  0.00  0.00    -0.170 NA
ATOM      7  C   UNL     1      -9.488  -0.483 -16.150  0.00  0.00    +0.137 A 
ATOM      8  C   UNL     1     -10.020  -0.618 -17.443  0.00  0.00    +0.069 A 
ATOM      9  C   UNL     1     -10.923   0.412 -17.563  0.00  0.00    +0.159 A 
ATOM     10  N   UNL     1     -11.751   0.784 -18.577  0.00  0.00    -0.232 NA
ENDROOT
BRANCH   4  11
ATOM     11  O   UNL     1     -11.569   2.880 -14.925  0.00  0.00    -0.492 OA
ATOM     12  H   UNL     1     -12.151   3.669 -14.994  0.00  0.00    +0.294 HD
ENDBRANCH   4  11
BRANCH   3  13
ATOM     13  C   UNL     1     -13.353   3.923 -16.974  0.00  0.00    +0.047 C 
BRANCH  13  14
ATOM     14  C   UNL     1     -14.886   3.602 -16.655  0.00  0.00    +0.040 C 
BRANCH  14  15
ATOM     15  C   UNL     1     -14.786   4.832 -15.051  0.00  0.00    -0.047 A 
ATOM     16  C   UNL     1     -15.467   6.046 -15.183  0.00  0.00    +0.003 A 
ATOM     17  C   UNL     1     -15.979   6.612 -14.020  0.00  0.00    +0.000 A 
ATOM     18  C   UNL     1     -15.838   5.952 -12.790  0.00  0.00    +0.000 A 
ATOM     19  C   UNL     1     -15.181   4.716 -12.704  0.00  0.00    +0.000 A 
ATOM     20  C   UNL     1     -14.664   4.123 -13.849  0.00  0.00    +0.003 A 
ENDBRANCH  14  15
ENDBRANCH  13  14
ENDBRANCH   3  13
TORSDOF 4
ENDMDL
MODEL 7
REMARK VINA RESULT:      -7.1      1.478      2.482
REMARK  Name = min_compound949.pdb
REMARK  5 active torsions:
REMARK  status: ('A' for Active; 'I' for Inactive)
REMARK    1  A    between atoms: _1  and  _18
REMARK    2  A    between atoms: _2  and  _17
REMARK    3  A    between atoms: _3  and  _19
REMARK    4  A    between atoms: _10  and  _16
REMARK    5  A    between atoms: _16  and  _17
REMARK                            x       y       z     vdW  Elec       q    Type
REMARK                         _______ _______ _______ _____ _____    ______ ____
ROOT
ATOM      1  C   UNL     1     -14.835   4.379 -15.820  0.00  0.00    +0.049 A 
ATOM      2  C   UNL     1     -15.038   2.942 -15.387  0.00  0.00    +0.066 C 
ATOM      3  C   UNL     1     -13.647   4.725 -16.700  0.00  0.00    +0.035 A 
ATOM      4  C   UNL     1     -13.593   6.021 -17.071  0.00  0.00    +0.220 A 
ATOM      5  N   UNL     1     -14.558   6.930 -16.620  0.00  0.00    -0.182 N 
ATOM      6  N   UNL     1     -14.615   8.260 -16.905  0.00  0.00    -0.170 NA
ATOM      7  C   UNL     1     -15.689   8.683 -16.234  0.00  0.00    +0.137 A 
ATOM      8  C   UNL     1     -16.329   7.656 -15.523  0.00  0.00    +0.069 A 
ATOM      9  C   UNL     1     -15.588   6.528 -15.786  0.00  0.00    +0.159 A 
ATOM     10  N   UNL     1     -15.727   5.232 -15.392  0.00  0.00    -0.232 NA
ENDROOT
BRANCH   4  11
ATOM     11  O   UNL     1     -12.584   6.505 -17.894  0.00  0.00    -0.492 OA
ATOM     12  H   UNL     1     -12.718   6.057 -18.759  0.00  0.00    +0.294 HD
ENDBRANCH   4  11
BRANCH   3  13
ATOM     13  C   UNL     1     -12.617   3.702 -17.115  0.00  0.00    +0.047 C 
BRANCH  13  14
ATOM     14  C   UNL     1     -11.560   3.367 -15.963  0.00  0.00    +0.040 C 
BRANCH  14  15
ATOM     15  C   UNL     1     -11.120   1.629 -16.903  0.00  0.00    -0.047 A 
ATOM     16  C   UNL     1      -9.813   1.524 -17.388  0.00  0.00    +0.003 A 
ATOM     17  C   UNL     1      -9.262   0.248 -17.442  0.00  0.00    +0.000 A 
ATOM     18  C   UNL     1      -9.993  -0.860 -16.987  0.00  0.00    +0.000 A 
ATOM     19  C   UNL     1     -11.289  -0.708 -16.473  0.00  0.00    +0.000 A 
ATOM     20  C   UNL     1     -11.864   0.555 -16.400  0.00  0.00    +0.003 A 
ENDBRANCH  14  15
ENDBRANCH  13  14
ENDBRANCH   3  13
TORSDOF 4
ENDMDL
MODEL 8
REMARK VINA RESULT:      -6.9     15.005     17.402
REMARK  Name = min_compound949.pdb
REMARK  5 active torsions:
REMARK  status: ('A' for Active; 'I' for Inactive)
REMARK    1  A    between atoms: _1  and  _18
REMARK    2  A    between atoms: _2  and  _17
REMARK    3  A    between atoms: _3  and  _19
REMARK    4  A    between atoms: _10  and  _16
REMARK    5  A    between atoms: _16  and  _17
REMARK                            x       y       z     vdW  Elec       q    Type
REMARK                         _______ _______ _______ _____ _____    ______ ____
ROOT
ATOM      1  C   UNL     1     -16.060  -4.305  -1.788  0.00  0.00    +0.049 A 
ATOM      2  C   UNL     1     -17.270  -3.496  -2.203  0.00  0.00    +0.066 C 
ATOM      3  C   UNL     1     -14.715  -3.610  -1.660  0.00  0.00    +0.035 A 
ATOM      4  C   UNL     1     -13.718  -4.412  -1.231  0.00  0.00    +0.220 A 
ATOM      5  N   UNL     1     -13.955  -5.768  -0.979  0.00  0.00    -0.182 N 
ATOM      6  N   UNL     1     -13.042  -6.686  -0.558  0.00  0.00    -0.170 NA
ATOM      7  C   UNL     1     -13.742  -7.821  -0.486  0.00  0.00    +0.137 A 
ATOM      8  C   UNL     1     -15.089  -7.657  -0.849  0.00  0.00    +0.069 A 
ATOM      9  C   UNL     1     -15.211  -6.323  -1.161  0.00  0.00    +0.159 A 
ATOM     10  N   UNL     1     -16.274  -5.574  -1.563  0.00  0.00    -0.232 NA
ENDROOT
BRANCH   4  11
ATOM     11  O   UNL     1     -12.428  -3.934  -1.037  0.00  0.00    -0.492 OA
ATOM     12  H   UNL     1     -12.469  -2.977  -1.258  0.00  0.00    +0.294 HD
ENDBRANCH   4  11
BRANCH   3  13
ATOM     13  C   UNL     1     -14.520  -2.150  -1.990  0.00  0.00    +0.047 C 
BRANCH  13  14
ATOM     14  C   UNL     1     -14.523  -1.852  -3.561  0.00  0.00    +0.040 C 
BRANCH  14  15
ATOM     15  C   UNL     1     -14.729   0.122  -3.163  0.00  0.00    -0.047 A 
ATOM     16  C   UNL     1     -13.553   0.874  -3.235  0.00  0.00    +0.003 A 
ATOM     17  C   UNL     1     -13.679   2.208  -3.608  0.00  0.00    +0.000 A 
ATOM     18  C   UNL     1     -14.938   2.737  -3.931  0.00  0.00    +0.000 A 
ATOM     19  C   UNL     1     -16.091   1.940  -3.883  0.00  0.00    +0.000 A 
ATOM     20  C   UNL     1     -15.996   0.602  -3.520  0.00  0.00    +0.003 A 
ENDBRANCH  14  15
ENDBRANCH  13  14
ENDBRANCH   3  13
TORSDOF 4
ENDMDL
MODEL 9
REMARK VINA RESULT:      -6.8      2.822      6.532
REMARK  Name = min_compound949.pdb
REMARK  5 active torsions:
REMARK  status: ('A' for Active; 'I' for Inactive)
REMARK    1  A    between atoms: _1  and  _18
REMARK    2  A    between atoms: _2  and  _17
REMARK    3  A    between atoms: _3  and  _19
REMARK    4  A    between atoms: _10  and  _16
REMARK    5  A    between atoms: _16  and  _17
REMARK                            x       y       z     vdW  Elec       q    Type
REMARK                         _______ _______ _______ _____ _____    ______ ____
ROOT
ATOM      1  C   UNL     1     -10.965   3.425 -16.595  0.00  0.00    +0.049 A 
ATOM      2  C   UNL     1     -10.717   4.875 -16.240  0.00  0.00    +0.066 C 
ATOM      3  C   UNL     1     -11.887   3.095 -17.756  0.00  0.00    +0.035 A 
ATOM      4  C   UNL     1     -11.993   1.776 -18.019  0.00  0.00    +0.220 A 
ATOM      5  N   UNL     1     -11.317   0.837 -17.231  0.00  0.00    -0.182 N 
ATOM      6  N   UNL     1     -11.346  -0.516 -17.377  0.00  0.00    -0.170 NA
ATOM      7  C   UNL     1     -10.570  -0.960 -16.385  0.00  0.00    +0.137 A 
ATOM      8  C   UNL     1     -10.036   0.076 -15.603  0.00  0.00    +0.069 A 
ATOM      9  C   UNL     1     -10.525   1.232 -16.164  0.00  0.00    +0.159 A 
ATOM     10  N   UNL     1     -10.345   2.545 -15.854  0.00  0.00    -0.232 NA
ENDROOT
BRANCH   4  11
ATOM     11  O   UNL     1     -12.777   1.299 -19.063  0.00  0.00    -0.492 OA
ATOM     12  H   UNL     1     -13.432   2.010 -19.241  0.00  0.00    +0.294 HD
ENDBRANCH   4  11
BRANCH   3  13
ATOM     13  C   UNL     1     -12.619   4.157 -18.539  0.00  0.00    +0.047 C 
BRANCH  13  14
ATOM     14  C   UNL     1     -14.204   4.114 -18.332  0.00  0.00    +0.040 C 
BRANCH  14  15
ATOM     15  C   UNL     1     -14.089   5.830 -17.265  0.00  0.00    -0.047 A 
ATOM     16  C   UNL     1     -13.953   6.999 -18.021  0.00  0.00    +0.003 A 
ATOM     17  C   UNL     1     -14.490   8.164 -17.485  0.00  0.00    +0.000 A 
ATOM     18  C   UNL     1     -15.169   8.131 -16.257  0.00  0.00    +0.000 A 
ATOM     19  C   UNL     1     -15.317   6.931 -15.546  0.00  0.00    +0.000 A 
ATOM     20  C   UNL     1     -14.797   5.749 -16.059  0.00  0.00    +0.003 A 
ENDBRANCH  14  15
ENDBRANCH  13  14
ENDBRANCH   3  13
TORSDOF 4
ENDMDL
