MODEL 1
REMARK VINA RESULT:      -7.4      0.000      0.000
REMARK  Name = min_compound980.pdb
REMARK  8 active torsions:
REMARK  status: ('A' for Active; 'I' for Inactive)
REMARK    1  A    between atoms: _3  and  _7
REMARK    2  A    between atoms: _6  and  _19
REMARK    3  A    between atoms: _8  and  _9
REMARK    4  A    between atoms: _8  and  _10
REMARK    5  A    between atoms: _9  and  _13
REMARK    6  A    between atoms: _10  and  _11
REMARK    7  A    between atoms: _19  and  _20
REMARK    8  A    between atoms: _19  and  _21
REMARK                            x       y       z     vdW  Elec       q    Type
REMARK                         _______ _______ _______ _____ _____    ______ ____
ROOT
ATOM      1  C   UNL     1     -14.310   2.084 -16.130  0.00  0.00    +0.016 C 
ATOM      2  C   UNL     1     -13.481   2.640 -17.234  0.00  0.00    +0.014 C 
ENDROOT
BRANCH   1   4
ATOM      3  C   UNL     1     -16.437   2.385 -14.860  0.00  0.00    +0.010 A 
ATOM      4  C   UNL     1     -15.123   2.790 -15.096  0.00  0.00    -0.025 A 
ATOM      5  C   UNL     1     -14.637   3.829 -14.292  0.00  0.00    +0.010 A 
ATOM      6  C   UNL     1     -15.454   4.485 -13.337  0.00  0.00    +0.023 A 
ATOM      7  C   UNL     1     -16.780   4.099 -13.103  0.00  0.00    +0.029 A 
ATOM      8  C   UNL     1     -17.239   3.020 -13.883  0.00  0.00    +0.023 A 
BRANCH   7   9
ATOM      9  N   UNL     1     -17.549   4.706 -12.095  0.00  0.00    -0.336 N 
ATOM     10  C   UNL     1     -18.389   3.809 -11.235  0.00  0.00    +0.129 C 
ATOM     11  C   UNL     1     -17.035   5.921 -11.461  0.00  0.00    +0.129 C 
ENDBRANCH   7   9
ENDBRANCH   1   4
BRANCH   2  12
ATOM     12  C   UNL     1     -12.790   1.860 -18.114  0.00  0.00    +0.190 C 
ATOM     13  O   UNL     1     -12.937   1.804 -19.377  0.00  0.00    -0.287 OA
BRANCH  12  14
ATOM     14  C   UNL     1     -11.730   0.988 -17.494  0.00  0.00    +0.022 A 
ATOM     15  C   UNL     1     -12.056  -0.158 -16.754  0.00  0.00    +0.012 A 
ATOM     16  C   UNL     1     -11.053  -0.979 -16.230  0.00  0.00    +0.001 A 
ATOM     17  C   UNL     1      -9.711  -0.676 -16.459  0.00  0.00    +0.000 A 
ATOM     18  C   UNL     1      -9.371   0.447 -17.212  0.00  0.00    +0.001 A 
ATOM     19  C   UNL     1     -10.375   1.272 -17.725  0.00  0.00    +0.012 A 
ENDBRANCH  12  14
ENDBRANCH   2  12
BRANCH   2  20
ATOM     20  C   UNL     1     -13.513   4.139 -17.205  0.00  0.00    +0.117 C 
BRANCH  20  21
ATOM     21  N   UNL     1     -13.544   5.639 -17.175  0.00  0.00    -0.326 NA
ATOM     22  H   UNL     1     -12.746   6.006 -17.693  0.00  0.00    +0.119 HD
ATOM     23  H   UNL     1     -14.409   5.969 -17.603  0.00  0.00    +0.119 HD
ENDBRANCH  20  21
ENDBRANCH   2  20
TORSDOF 6
ENDMDL
MODEL 2
REMARK VINA RESULT:      -7.4      1.431      1.765
REMARK  Name = min_compound980.pdb
REMARK  8 active torsions:
REMARK  status: ('A' for Active; 'I' for Inactive)
REMARK    1  A    between atoms: _3  and  _7
REMARK    2  A    between atoms: _6  and  _19
REMARK    3  A    between atoms: _8  and  _9
REMARK    4  A    between atoms: _8  and  _10
REMARK    5  A    between atoms: _9  and  _13
REMARK    6  A    between atoms: _10  and  _11
REMARK    7  A    between atoms: _19  and  _20
REMARK    8  A    between atoms: _19  and  _21
REMARK                            x       y       z     vdW  Elec       q    Type
REMARK                         _______ _______ _______ _____ _____    ______ ____
ROOT
ATOM      1  C   UNL     1     -14.149   2.836 -16.559  0.00  0.00    +0.016 C 
ATOM      2  C   UNL     1     -12.938   2.911 -17.421  0.00  0.00    +0.014 C 
ENDROOT
BRANCH   1   4
ATOM      3  C   UNL     1     -15.631   4.819 -16.237  0.00  0.00    +0.010 A 
ATOM      4  C   UNL     1     -14.764   3.876 -15.683  0.00  0.00    -0.025 A 
ATOM      5  C   UNL     1     -14.565   3.951 -14.298  0.00  0.00    +0.010 A 
ATOM      6  C   UNL     1     -15.153   4.970 -13.508  0.00  0.00    +0.023 A 
ATOM      7  C   UNL     1     -16.012   5.933 -14.056  0.00  0.00    +0.029 A 
ATOM      8  C   UNL     1     -16.243   5.814 -15.440  0.00  0.00    +0.023 A 
BRANCH   7   9
ATOM      9  N   UNL     1     -16.651   6.887 -13.244  0.00  0.00    -0.336 N 
ATOM     10  C   UNL     1     -17.519   7.902 -13.928  0.00  0.00    +0.129 C 
ATOM     11  C   UNL     1     -17.047   6.497 -11.891  0.00  0.00    +0.129 C 
ENDBRANCH   7   9
ENDBRANCH   1   4
BRANCH   2  12
ATOM     12  C   UNL     1     -12.496   1.866 -18.179  0.00  0.00    +0.190 C 
ATOM     13  O   UNL     1     -12.792   1.613 -19.390  0.00  0.00    -0.287 OA
BRANCH  12  14
ATOM     14  C   UNL     1     -11.540   0.935 -17.482  0.00  0.00    +0.022 A 
ATOM     15  C   UNL     1     -11.991  -0.157 -16.726  0.00  0.00    +0.012 A 
ATOM     16  C   UNL     1     -11.083  -1.036 -16.129  0.00  0.00    +0.001 A 
ATOM     17  C   UNL     1      -9.712  -0.848 -16.300  0.00  0.00    +0.000 A 
ATOM     18  C   UNL     1      -9.248   0.219 -17.068  0.00  0.00    +0.001 A 
ATOM     19  C   UNL     1     -10.157   1.103 -17.654  0.00  0.00    +0.012 A 
ENDBRANCH  12  14
ENDBRANCH   2  12
BRANCH   2  20
ATOM     20  C   UNL     1     -12.298   4.262 -17.303  0.00  0.00    +0.117 C 
BRANCH  20  21
ATOM     21  N   UNL     1     -11.657   5.613 -17.184  0.00  0.00    -0.326 NA
ATOM     22  H   UNL     1     -11.579   6.035 -18.110  0.00  0.00    +0.119 HD
ATOM     23  H   UNL     1     -12.230   6.210 -16.586  0.00  0.00    +0.119 HD
ENDBRANCH  20  21
ENDBRANCH   2  20
TORSDOF 6
ENDMDL
MODEL 3
REMARK VINA RESULT:      -7.2      1.472      1.894
REMARK  Name = min_compound980.pdb
REMARK  8 active torsions:
REMARK  status: ('A' for Active; 'I' for Inactive)
REMARK    1  A    between atoms: _3  and  _7
REMARK    2  A    between atoms: _6  and  _19
REMARK    3  A    between atoms: _8  and  _9
REMARK    4  A    between atoms: _8  and  _10
REMARK    5  A    between atoms: _9  and  _13
REMARK    6  A    between atoms: _10  and  _11
REMARK    7  A    between atoms: _19  and  _20
REMARK    8  A    between atoms: _19  and  _21
REMARK                            x       y       z     vdW  Elec       q    Type
REMARK                         _______ _______ _______ _____ _____    ______ ____
ROOT
ATOM      1  C   UNL     1     -13.572   3.399 -15.304  0.00  0.00    +0.016 C 
ATOM      2  C   UNL     1     -13.228   3.284 -16.747  0.00  0.00    +0.014 C 
ENDROOT
BRANCH   1   4
ATOM      3  C   UNL     1     -15.231   4.713 -13.981  0.00  0.00    +0.010 A 
ATOM      4  C   UNL     1     -14.905   3.531 -14.646  0.00  0.00    -0.025 A 
ATOM      5  C   UNL     1     -15.900   2.545 -14.686  0.00  0.00    +0.010 A 
ATOM      6  C   UNL     1     -17.145   2.706 -14.027  0.00  0.00    +0.023 A 
ATOM      7  C   UNL     1     -17.476   3.882 -13.341  0.00  0.00    +0.029 A 
ATOM      8  C   UNL     1     -16.487   4.884 -13.353  0.00  0.00    +0.023 A 
BRANCH   7   9
ATOM      9  N   UNL     1     -18.746   4.056 -12.764  0.00  0.00    -0.336 N 
ATOM     10  C   UNL     1     -19.939   3.748 -13.620  0.00  0.00    +0.129 C 
ATOM     11  C   UNL     1     -18.898   3.823 -11.328  0.00  0.00    +0.129 C 
ENDBRANCH   7   9
ENDBRANCH   1   4
BRANCH   2  12
ATOM     12  C   UNL     1     -11.948   3.163 -17.202  0.00  0.00    +0.190 C 
ATOM     13  O   UNL     1     -11.222   4.073 -17.715  0.00  0.00    -0.287 OA
BRANCH  12  14
ATOM     14  C   UNL     1     -11.347   1.790 -17.052  0.00  0.00    +0.022 A 
ATOM     15  C   UNL     1     -12.122   0.681 -16.681  0.00  0.00    +0.012 A 
ATOM     16  C   UNL     1     -11.551  -0.592 -16.596  0.00  0.00    +0.001 A 
ATOM     17  C   UNL     1     -10.204  -0.777 -16.905  0.00  0.00    +0.000 A 
ATOM     18  C   UNL     1      -9.427   0.311 -17.299  0.00  0.00    +0.001 A 
ATOM     19  C   UNL     1      -9.995   1.585 -17.371  0.00  0.00    +0.012 A 
ENDBRANCH  12  14
ENDBRANCH   2  12
BRANCH   2  20
ATOM     20  C   UNL     1     -14.471   3.343 -17.585  0.00  0.00    +0.117 C 
BRANCH  20  21
ATOM     21  N   UNL     1     -15.714   3.403 -18.422  0.00  0.00    -0.326 NA
ATOM     22  H   UNL     1     -16.494   3.726 -17.850  0.00  0.00    +0.119 HD
ATOM     23  H   UNL     1     -15.570   4.050 -19.198  0.00  0.00    +0.119 HD
ENDBRANCH  20  21
ENDBRANCH   2  20
TORSDOF 6
ENDMDL
MODEL 4
REMARK VINA RESULT:      -7.0      5.511      8.411
REMARK  Name = min_compound980.pdb
REMARK  8 active torsions:
REMARK  status: ('A' for Active; 'I' for Inactive)
REMARK    1  A    between atoms: _3  and  _7
REMARK    2  A    between atoms: _6  and  _19
REMARK    3  A    between atoms: _8  and  _9
REMARK    4  A    between atoms: _8  and  _10
REMARK    5  A    between atoms: _9  and  _13
REMARK    6  A    between atoms: _10  and  _11
REMARK    7  A    between atoms: _19  and  _20
REMARK    8  A    between atoms: _19  and  _21
REMARK                            x       y       z     vdW  Elec       q    Type
REMARK                         _______ _______ _______ _____ _____    ______ ____
ROOT
ATOM      1  C   UNL     1     -16.910   2.103  -9.121  0.00  0.00    +0.016 C 
ATOM      2  C   UNL     1     -17.352   3.368  -9.770  0.00  0.00    +0.014 C 
ENDROOT
BRANCH   1   4
ATOM      3  C   UNL     1     -17.044   2.091  -6.629  0.00  0.00    +0.010 A 
ATOM      4  C   UNL     1     -16.288   1.881  -7.783  0.00  0.00    -0.025 A 
ATOM      5  C   UNL     1     -14.977   1.422  -7.594  0.00  0.00    +0.010 A 
ATOM      6  C   UNL     1     -14.421   1.248  -6.303  0.00  0.00    +0.023 A 
ATOM      7  C   UNL     1     -15.165   1.472  -5.136  0.00  0.00    +0.029 A 
ATOM      8  C   UNL     1     -16.496   1.883  -5.342  0.00  0.00    +0.023 A 
BRANCH   7   9
ATOM      9  N   UNL     1     -14.623   1.214  -3.865  0.00  0.00    -0.336 N 
ATOM     10  C   UNL     1     -14.750  -0.183  -3.333  0.00  0.00    +0.129 C 
ATOM     11  C   UNL     1     -13.439   1.965  -3.445  0.00  0.00    +0.129 C 
ENDBRANCH   7   9
ENDBRANCH   1   4
BRANCH   2  12
ATOM     12  C   UNL     1     -17.916   3.413 -11.011  0.00  0.00    +0.190 C 
ATOM     13  O   UNL     1     -19.155   3.433 -11.295  0.00  0.00    -0.287 OA
BRANCH  12  14
ATOM     14  C   UNL     1     -16.935   3.460 -12.153  0.00  0.00    +0.022 A 
ATOM     15  C   UNL     1     -17.113   2.690 -13.312  0.00  0.00    +0.012 A 
ATOM     16  C   UNL     1     -16.215   2.788 -14.379  0.00  0.00    +0.001 A 
ATOM     17  C   UNL     1     -15.141   3.674 -14.310  0.00  0.00    +0.000 A 
ATOM     18  C   UNL     1     -14.964   4.463 -13.174  0.00  0.00    +0.001 A 
ATOM     19  C   UNL     1     -15.854   4.355 -12.104  0.00  0.00    +0.012 A 
ENDBRANCH  12  14
ENDBRANCH   2  12
BRANCH   2  20
ATOM     20  C   UNL     1     -17.063   4.538  -8.877  0.00  0.00    +0.117 C 
BRANCH  20  21
ATOM     21  N   UNL     1     -16.775   5.709  -7.984  0.00  0.00    -0.326 NA
ATOM     22  H   UNL     1     -17.049   6.571  -8.455  0.00  0.00    +0.119 HD
ATOM     23  H   UNL     1     -17.303   5.612  -7.116  0.00  0.00    +0.119 HD
ENDBRANCH  20  21
ENDBRANCH   2  20
TORSDOF 6
ENDMDL
MODEL 5
REMARK VINA RESULT:      -6.8      1.911      2.617
REMARK  Name = min_compound980.pdb
REMARK  8 active torsions:
REMARK  status: ('A' for Active; 'I' for Inactive)
REMARK    1  A    between atoms: _3  and  _7
REMARK    2  A    between atoms: _6  and  _19
REMARK    3  A    between atoms: _8  and  _9
REMARK    4  A    between atoms: _8  and  _10
REMARK    5  A    between atoms: _9  and  _13
REMARK    6  A    between atoms: _10  and  _11
REMARK    7  A    between atoms: _19  and  _20
REMARK    8  A    between atoms: _19  and  _21
REMARK                            x       y       z     vdW  Elec       q    Type
REMARK                         _______ _______ _______ _____ _____    ______ ____
ROOT
ATOM      1  C   UNL     1     -14.001   4.459 -15.041  0.00  0.00    +0.016 C 
ATOM      2  C   UNL     1     -14.177   3.318 -15.981  0.00  0.00    +0.014 C 
ENDROOT
BRANCH   1   4
ATOM      3  C   UNL     1     -15.816   5.902 -14.117  0.00  0.00    +0.010 A 
ATOM      4  C   UNL     1     -14.861   4.905 -13.907  0.00  0.00    -0.025 A 
ATOM      5  C   UNL     1     -14.812   4.352 -12.620  0.00  0.00    +0.010 A 
ATOM      6  C   UNL     1     -15.635   4.824 -11.568  0.00  0.00    +0.023 A 
ATOM      7  C   UNL     1     -16.585   5.836 -11.762  0.00  0.00    +0.029 A 
ATOM      8  C   UNL     1     -16.659   6.347 -13.072  0.00  0.00    +0.023 A 
BRANCH   7   9
ATOM      9  N   UNL     1     -17.450   6.234 -10.727  0.00  0.00    -0.336 N 
ATOM     10  C   UNL     1     -16.883   6.287  -9.340  0.00  0.00    +0.129 C 
ATOM     11  C   UNL     1     -18.511   7.193 -11.034  0.00  0.00    +0.129 C 
ENDBRANCH   7   9
ENDBRANCH   1   4
BRANCH   2  12
ATOM     12  C   UNL     1     -13.292   3.029 -16.978  0.00  0.00    +0.190 C 
ATOM     13  O   UNL     1     -13.232   3.558 -18.133  0.00  0.00    -0.287 OA
BRANCH  12  14
ATOM     14  C   UNL     1     -12.275   1.972 -16.637  0.00  0.00    +0.022 A 
ATOM     15  C   UNL     1     -11.161   2.251 -15.831  0.00  0.00    +0.012 A 
ATOM     16  C   UNL     1     -10.257   1.241 -15.488  0.00  0.00    +0.001 A 
ATOM     17  C   UNL     1     -10.469  -0.066 -15.927  0.00  0.00    +0.000 A 
ATOM     18  C   UNL     1     -11.584  -0.363 -16.709  0.00  0.00    +0.001 A 
ATOM     19  C   UNL     1     -12.479   0.649 -17.061  0.00  0.00    +0.012 A 
ENDBRANCH  12  14
ENDBRANCH   2  12
BRANCH   2  20
ATOM     20  C   UNL     1     -15.449   2.585 -15.676  0.00  0.00    +0.117 C 
BRANCH  20  21
ATOM     21  N   UNL     1     -16.722   1.852 -15.370  0.00  0.00    -0.326 NA
ATOM     22  H   UNL     1     -16.602   0.861 -15.581  0.00  0.00    +0.119 HD
ATOM     23  H   UNL     1     -16.950   1.965 -14.382  0.00  0.00    +0.119 HD
ENDBRANCH  20  21
ENDBRANCH   2  20
TORSDOF 6
ENDMDL
MODEL 6
REMARK VINA RESULT:      -6.7      4.435      6.586
REMARK  Name = min_compound980.pdb
REMARK  8 active torsions:
REMARK  status: ('A' for Active; 'I' for Inactive)
REMARK    1  A    between atoms: _3  and  _7
REMARK    2  A    between atoms: _6  and  _19
REMARK    3  A    between atoms: _8  and  _9
REMARK    4  A    between atoms: _8  and  _10
REMARK    5  A    between atoms: _9  and  _13
REMARK    6  A    between atoms: _10  and  _11
REMARK    7  A    between atoms: _19  and  _20
REMARK    8  A    between atoms: _19  and  _21
REMARK                            x       y       z     vdW  Elec       q    Type
REMARK                         _______ _______ _______ _____ _____    ______ ____
ROOT
ATOM      1  C   UNL     1     -12.439   4.815 -18.056  0.00  0.00    +0.016 C 
ATOM      2  C   UNL     1     -12.530   3.347 -17.823  0.00  0.00    +0.014 C 
ENDROOT
BRANCH   1   4
ATOM      3  C   UNL     1     -14.132   5.992 -19.462  0.00  0.00    +0.010 A 
ATOM      4  C   UNL     1     -12.804   5.615 -19.262  0.00  0.00    -0.025 A 
ATOM      5  C   UNL     1     -11.878   6.066 -20.212  0.00  0.00    +0.010 A 
ATOM      6  C   UNL     1     -12.274   6.805 -21.355  0.00  0.00    +0.023 A 
ATOM      7  C   UNL     1     -13.608   7.176 -21.575  0.00  0.00    +0.029 A 
ATOM      8  C   UNL     1     -14.519   6.759 -20.586  0.00  0.00    +0.023 A 
BRANCH   7   9
ATOM      9  N   UNL     1     -13.970   7.980 -22.671  0.00  0.00    -0.336 N 
ATOM     10  C   UNL     1     -15.330   8.612 -22.641  0.00  0.00    +0.129 C 
ATOM     11  C   UNL     1     -12.920   8.725 -23.366  0.00  0.00    +0.129 C 
ENDBRANCH   7   9
ENDBRANCH   1   4
BRANCH   2  12
ATOM     12  C   UNL     1     -12.159   2.754 -16.652  0.00  0.00    +0.190 C 
ATOM     13  O   UNL     1     -12.422   3.146 -15.471  0.00  0.00    -0.287 OA
BRANCH  12  14
ATOM     14  C   UNL     1     -11.364   1.484 -16.807  0.00  0.00    +0.022 A 
ATOM     15  C   UNL     1     -10.041   1.494 -17.274  0.00  0.00    +0.012 A 
ATOM     16  C   UNL     1      -9.307   0.307 -17.363  0.00  0.00    +0.001 A 
ATOM     17  C   UNL     1      -9.878  -0.900 -16.963  0.00  0.00    +0.000 A 
ATOM     18  C   UNL     1     -11.183  -0.922 -16.474  0.00  0.00    +0.001 A 
ATOM     19  C   UNL     1     -11.920   0.262 -16.397  0.00  0.00    +0.012 A 
ENDBRANCH  12  14
ENDBRANCH   2  12
BRANCH   2  20
ATOM     20  C   UNL     1     -13.053   2.657 -19.047  0.00  0.00    +0.117 C 
BRANCH  20  21
ATOM     21  N   UNL     1     -13.576   1.967 -20.272  0.00  0.00    -0.326 NA
ATOM     22  H   UNL     1     -13.090   2.321 -21.096  0.00  0.00    +0.119 HD
ATOM     23  H   UNL     1     -13.418   0.962 -20.190  0.00  0.00    +0.119 HD
ENDBRANCH  20  21
ENDBRANCH   2  20
TORSDOF 6
ENDMDL
MODEL 7
REMARK VINA RESULT:      -6.7      5.040      8.534
REMARK  Name = min_compound980.pdb
REMARK  8 active torsions:
REMARK  status: ('A' for Active; 'I' for Inactive)
REMARK    1  A    between atoms: _3  and  _7
REMARK    2  A    between atoms: _6  and  _19
REMARK    3  A    between atoms: _8  and  _9
REMARK    4  A    between atoms: _8  and  _10
REMARK    5  A    between atoms: _9  and  _13
REMARK    6  A    between atoms: _10  and  _11
REMARK    7  A    between atoms: _19  and  _20
REMARK    8  A    between atoms: _19  and  _21
REMARK                            x       y       z     vdW  Elec       q    Type
REMARK                         _______ _______ _______ _____ _____    ______ ____
ROOT
ATOM      1  C   UNL     1     -16.666   2.815  -9.714  0.00  0.00    +0.016 C 
ATOM      2  C   UNL     1     -16.961   3.426  -8.389  0.00  0.00    +0.014 C 
ENDROOT
BRANCH   1   4
ATOM      3  C   UNL     1     -17.167   3.215 -12.126  0.00  0.00    +0.010 A 
ATOM      4  C   UNL     1     -16.355   3.468 -11.020  0.00  0.00    -0.025 A 
ATOM      5  C   UNL     1     -15.305   4.376 -11.212  0.00  0.00    +0.010 A 
ATOM      6  C   UNL     1     -15.034   4.954 -12.477  0.00  0.00    +0.023 A 
ATOM      7  C   UNL     1     -15.832   4.695 -13.600  0.00  0.00    +0.029 A 
ATOM      8  C   UNL     1     -16.914   3.821 -13.379  0.00  0.00    +0.023 A 
BRANCH   7   9
ATOM      9  N   UNL     1     -15.598   5.342 -14.826  0.00  0.00    -0.336 N 
ATOM     10  C   UNL     1     -15.690   6.839 -14.843  0.00  0.00    +0.129 C 
ATOM     11  C   UNL     1     -14.653   4.737 -15.765  0.00  0.00    +0.129 C 
ENDBRANCH   7   9
ENDBRANCH   1   4
BRANCH   2  12
ATOM     12  C   UNL     1     -17.225   2.691  -7.271  0.00  0.00    +0.190 C 
ATOM     13  O   UNL     1     -18.082   2.944  -6.365  0.00  0.00    -0.287 OA
BRANCH  12  14
ATOM     14  C   UNL     1     -16.406   1.436  -7.128  0.00  0.00    +0.022 A 
ATOM     15  C   UNL     1     -15.079   1.468  -6.673  0.00  0.00    +0.012 A 
ATOM     16  C   UNL     1     -14.354   0.284  -6.502  0.00  0.00    +0.001 A 
ATOM     17  C   UNL     1     -14.955  -0.947  -6.759  0.00  0.00    +0.000 A 
ATOM     18  C   UNL     1     -16.281  -0.997  -7.187  0.00  0.00    +0.001 A 
ATOM     19  C   UNL     1     -16.999   0.186  -7.370  0.00  0.00    +0.012 A 
ENDBRANCH  12  14
ENDBRANCH   2  12
BRANCH   2  20
ATOM     20  C   UNL     1     -16.944   4.922  -8.490  0.00  0.00    +0.117 C 
BRANCH  20  21
ATOM     21  N   UNL     1     -16.926   6.419  -8.592  0.00  0.00    -0.326 NA
ATOM     22  H   UNL     1     -16.252   6.797  -7.926  0.00  0.00    +0.119 HD
ATOM     23  H   UNL     1     -16.660   6.692  -9.538  0.00  0.00    +0.119 HD
ENDBRANCH  20  21
ENDBRANCH   2  20
TORSDOF 6
ENDMDL
MODEL 8
REMARK VINA RESULT:      -6.7     11.826     14.830
REMARK  Name = min_compound980.pdb
REMARK  8 active torsions:
REMARK  status: ('A' for Active; 'I' for Inactive)
REMARK    1  A    between atoms: _3  and  _7
REMARK    2  A    between atoms: _6  and  _19
REMARK    3  A    between atoms: _8  and  _9
REMARK    4  A    between atoms: _8  and  _10
REMARK    5  A    between atoms: _9  and  _13
REMARK    6  A    between atoms: _10  and  _11
REMARK    7  A    between atoms: _19  and  _20
REMARK    8  A    between atoms: _19  and  _21
REMARK                            x       y       z     vdW  Elec       q    Type
REMARK                         _______ _______ _______ _____ _____    ______ ____
ROOT
ATOM      1  C   UNL     1     -14.520  -1.141  -2.275  0.00  0.00    +0.016 C 
ATOM      2  C   UNL     1     -14.450  -0.299  -3.501  0.00  0.00    +0.014 C 
ENDROOT
BRANCH   1   4
ATOM      3  C   UNL     1     -13.481  -3.343  -1.726  0.00  0.00    +0.010 A 
ATOM      4  C   UNL     1     -14.605  -2.624  -2.138  0.00  0.00    -0.025 A 
ATOM      5  C   UNL     1     -15.773  -3.367  -2.356  0.00  0.00    +0.010 A 
ATOM      6  C   UNL     1     -15.800  -4.778  -2.235  0.00  0.00    +0.023 A 
ATOM      7  C   UNL     1     -14.674  -5.512  -1.839  0.00  0.00    +0.029 A 
ATOM      8  C   UNL     1     -13.521  -4.748  -1.574  0.00  0.00    +0.023 A 
BRANCH   7   9
ATOM      9  N   UNL     1     -14.741  -6.903  -1.644  0.00  0.00    -0.336 N 
ATOM     10  C   UNL     1     -15.300  -7.729  -2.765  0.00  0.00    +0.129 C 
ATOM     11  C   UNL     1     -13.723  -7.542  -0.810  0.00  0.00    +0.129 C 
ENDBRANCH   7   9
ENDBRANCH   1   4
BRANCH   2  12
ATOM     12  C   UNL     1     -14.371   1.063  -3.468  0.00  0.00    +0.190 C 
ATOM     13  O   UNL     1     -13.326   1.771  -3.310  0.00  0.00    -0.287 OA
BRANCH  12  14
ATOM     14  C   UNL     1     -15.681   1.780  -3.657  0.00  0.00    +0.022 A 
ATOM     15  C   UNL     1     -15.735   3.133  -4.024  0.00  0.00    +0.012 A 
ATOM     16  C   UNL     1     -16.964   3.765  -4.243  0.00  0.00    +0.001 A 
ATOM     17  C   UNL     1     -18.152   3.044  -4.121  0.00  0.00    +0.000 A 
ATOM     18  C   UNL     1     -18.112   1.693  -3.780  0.00  0.00    +0.001 A 
ATOM     19  C   UNL     1     -16.885   1.067  -3.550  0.00  0.00    +0.012 A 
ENDBRANCH  12  14
ENDBRANCH   2  12
BRANCH   2  20
ATOM     20  C   UNL     1     -14.504  -1.160  -4.728  0.00  0.00    +0.117 C 
BRANCH  20  21
ATOM     21  N   UNL     1     -14.559  -2.022  -5.954  0.00  0.00    -0.326 NA
ATOM     22  H   UNL     1     -15.468  -2.481  -6.007  0.00  0.00    +0.119 HD
ATOM     23  H   UNL     1     -14.422  -1.443  -6.783  0.00  0.00    +0.119 HD
ENDBRANCH  20  21
ENDBRANCH   2  20
TORSDOF 6
ENDMDL
MODEL 9
REMARK VINA RESULT:      -6.7      6.838      9.426
REMARK  Name = min_compound980.pdb
REMARK  8 active torsions:
REMARK  status: ('A' for Active; 'I' for Inactive)
REMARK    1  A    between atoms: _3  and  _7
REMARK    2  A    between atoms: _6  and  _19
REMARK    3  A    between atoms: _8  and  _9
REMARK    4  A    between atoms: _8  and  _10
REMARK    5  A    between atoms: _9  and  _13
REMARK    6  A    between atoms: _10  and  _11
REMARK    7  A    between atoms: _19  and  _20
REMARK    8  A    between atoms: _19  and  _21
REMARK                            x       y       z     vdW  Elec       q    Type
REMARK                         _______ _______ _______ _____ _____    ______ ____
ROOT
ATOM      1  C   UNL     1     -15.958   2.302  -8.693  0.00  0.00    +0.016 C 
ATOM      2  C   UNL     1     -16.640   1.245  -7.897  0.00  0.00    +0.014 C 
ENDROOT
BRANCH   1   4
ATOM      3  C   UNL     1     -16.622   4.657  -9.183  0.00  0.00    +0.010 A 
ATOM      4  C   UNL     1     -16.533   3.331  -9.608  0.00  0.00    -0.025 A 
ATOM      5  C   UNL     1     -16.962   3.066 -10.915  0.00  0.00    +0.010 A 
ATOM      6  C   UNL     1     -17.524   4.072 -11.740  0.00  0.00    +0.023 A 
ATOM      7  C   UNL     1     -17.634   5.404 -11.318  0.00  0.00    +0.029 A 
ATOM      8  C   UNL     1     -17.151   5.665 -10.022  0.00  0.00    +0.023 A 
BRANCH   7   9
ATOM      9  N   UNL     1     -18.117   6.404 -12.180  0.00  0.00    -0.336 N 
ATOM     10  C   UNL     1     -19.192   7.307 -11.653  0.00  0.00    +0.129 C 
ATOM     11  C   UNL     1     -17.196   6.989 -13.155  0.00  0.00    +0.129 C 
ENDBRANCH   7   9
ENDBRANCH   1   4
BRANCH   2  12
ATOM     12  C   UNL     1     -15.972   0.369  -7.092  0.00  0.00    +0.190 C 
ATOM     13  O   UNL     1     -15.837  -0.884  -7.260  0.00  0.00    -0.287 OA
BRANCH  12  14
ATOM     14  C   UNL     1     -15.320   0.988  -5.884  0.00  0.00    +0.022 A 
ATOM     15  C   UNL     1     -15.954   1.990  -5.134  0.00  0.00    +0.012 A 
ATOM     16  C   UNL     1     -15.349   2.515  -3.987  0.00  0.00    +0.001 A 
ATOM     17  C   UNL     1     -14.114   2.026  -3.563  0.00  0.00    +0.000 A 
ATOM     18  C   UNL     1     -13.483   1.013  -4.283  0.00  0.00    +0.001 A 
ATOM     19  C   UNL     1     -14.082   0.499  -5.435  0.00  0.00    +0.012 A 
ENDBRANCH  12  14
ENDBRANCH   2  12
BRANCH   2  20
ATOM     20  C   UNL     1     -18.120   1.287  -8.137  0.00  0.00    +0.117 C 
BRANCH  20  21
ATOM     21  N   UNL     1     -19.600   1.329  -8.377  0.00  0.00    -0.326 NA
ATOM     22  H   UNL     1     -19.783   1.722  -9.300  0.00  0.00    +0.119 HD
ATOM     23  H   UNL     1     -19.979   0.383  -8.329  0.00  0.00    +0.119 HD
ENDBRANCH  20  21
ENDBRANCH   2  20
TORSDOF 6
ENDMDL
