MODEL 1
REMARK VINA RESULT:      -5.9      0.000      0.000
REMARK  Name = min_compound957.pdb
REMARK  7 active torsions:
REMARK  status: ('A' for Active; 'I' for Inactive)
REMARK    1  A    between atoms: _2  and  _14
REMARK    2  A    between atoms: _4  and  _18
REMARK    3  A    between atoms: _5  and  _17
REMARK    4  A    between atoms: _6  and  _18
REMARK    5  A    between atoms: _14  and  _15
REMARK    6  A    between atoms: _14  and  _16
REMARK    7  A    between atoms: _17  and  _19
REMARK                            x       y       z     vdW  Elec       q    Type
REMARK                         _______ _______ _______ _____ _____    ______ ____
ROOT
ATOM      1  N   UNL     1     -16.225   4.423 -16.409  0.00  0.00    -0.240 NA
ATOM      2  C   UNL     1     -15.519   4.923 -17.461  0.00  0.00    +0.136 A 
ATOM      3  C   UNL     1     -14.162   4.768 -17.269  0.00  0.00    +0.064 A 
ATOM      4  N   UNL     1     -14.058   4.019 -16.113  0.00  0.00    -0.325 N 
ATOM      5  C   UNL     1     -15.332   3.955 -15.561  0.00  0.00    +0.113 A 
ENDROOT
BRANCH   5   6
ATOM      6  C   UNL     1     -15.648   3.460 -14.173  0.00  0.00    +0.049 C 
ATOM      7  C   UNL     1     -16.991   2.737 -14.147  0.00  0.00    +0.015 C 
ATOM      8  C   UNL     1     -15.648   4.621 -13.173  0.00  0.00    +0.015 C 
ENDBRANCH   5   6
BRANCH   3   9
ATOM      9  C   UNL     1     -13.050   5.300 -18.084  0.00  0.00    +0.210 C 
BRANCH   9  10
ATOM     10  O   UNL     1     -12.554   6.432 -17.390  0.00  0.00    -0.389 OA
ATOM     11  H   UNL     1     -13.183   7.157 -17.560  0.00  0.00    +0.210 HD
ENDBRANCH   9  10
ENDBRANCH   3   9
BRANCH   4  12
ATOM     12  C   UNL     1     -12.851   3.489 -15.470  0.00  0.00    +0.161 C 
BRANCH  12  13
ATOM     13  C   UNL     1     -12.069   2.437 -16.232  0.00  0.00    +0.009 A 
ATOM     14  C   UNL     1     -12.581   1.152 -16.507  0.00  0.00    +0.047 A 
ATOM     15  C   UNL     1     -11.834   0.210 -17.229  0.00  0.00    +0.020 A 
ATOM     16  C   UNL     1     -10.543   0.505 -17.651  0.00  0.00    +0.003 A 
ATOM     17  C   UNL     1      -9.990   1.738 -17.335  0.00  0.00    +0.020 A 
ATOM     18 CL   UNL     1     -14.128   0.623 -15.948  0.00  0.00    -0.083 Cl
ATOM     19  C   UNL     1     -10.738   2.691 -16.628  0.00  0.00    +0.047 A 
ATOM     20 CL   UNL     1      -9.917   4.167 -16.243  0.00  0.00    -0.083 Cl
ENDBRANCH  12  13
ENDBRANCH   4  12
TORSDOF 5
ENDMDL
MODEL 2
REMARK VINA RESULT:      -5.8     10.339     12.609
REMARK  Name = min_compound957.pdb
REMARK  7 active torsions:
REMARK  status: ('A' for Active; 'I' for Inactive)
REMARK    1  A    between atoms: _2  and  _14
REMARK    2  A    between atoms: _4  and  _18
REMARK    3  A    between atoms: _5  and  _17
REMARK    4  A    between atoms: _6  and  _18
REMARK    5  A    between atoms: _14  and  _15
REMARK    6  A    between atoms: _14  and  _16
REMARK    7  A    between atoms: _17  and  _19
REMARK                            x       y       z     vdW  Elec       q    Type
REMARK                         _______ _______ _______ _____ _____    ______ ____
ROOT
ATOM      1  N   UNL     1     -18.077   0.200  -7.593  0.00  0.00    -0.240 NA
ATOM      2  C   UNL     1     -18.912  -0.653  -6.937  0.00  0.00    +0.136 A 
ATOM      3  C   UNL     1     -18.798  -0.507  -5.570  0.00  0.00    +0.064 A 
ATOM      4  N   UNL     1     -17.958   0.577  -5.404  0.00  0.00    -0.325 N 
ATOM      5  C   UNL     1     -17.443   0.880  -6.659  0.00  0.00    +0.113 A 
ENDROOT
BRANCH   5   6
ATOM      6  C   UNL     1     -16.294   1.821  -6.917  0.00  0.00    +0.049 C 
ATOM      7  C   UNL     1     -16.632   2.795  -8.043  0.00  0.00    +0.015 C 
ATOM      8  C   UNL     1     -15.020   1.039  -7.252  0.00  0.00    +0.015 C 
ENDBRANCH   5   6
BRANCH   3   9
ATOM      9  C   UNL     1     -19.404  -1.331  -4.503  0.00  0.00    +0.210 C 
BRANCH   9  10
ATOM     10  O   UNL     1     -18.727  -2.577  -4.530  0.00  0.00    -0.389 OA
ATOM     11  H   UNL     1     -19.337  -3.230  -4.141  0.00  0.00    +0.210 HD
ENDBRANCH   9  10
ENDBRANCH   3   9
BRANCH   4  12
ATOM     12  C   UNL     1     -17.543   1.232  -4.160  0.00  0.00    +0.161 C 
BRANCH  12  13
ATOM     13  C   UNL     1     -16.054   1.317  -3.888  0.00  0.00    +0.009 A 
ATOM     14  C   UNL     1     -15.269   0.190  -3.568  0.00  0.00    +0.047 A 
ATOM     15  C   UNL     1     -13.890   0.304  -3.339  0.00  0.00    +0.020 A 
ATOM     16  C   UNL     1     -13.269   1.547  -3.373  0.00  0.00    +0.003 A 
ATOM     17  C   UNL     1     -14.031   2.681  -3.618  0.00  0.00    +0.020 A 
ATOM     18 CL   UNL     1     -15.936  -1.395  -3.391  0.00  0.00    -0.083 Cl
ATOM     19  C   UNL     1     -15.407   2.571  -3.865  0.00  0.00    +0.047 A 
ATOM     20 CL   UNL     1     -16.257   4.062  -4.099  0.00  0.00    -0.083 Cl
ENDBRANCH  12  13
ENDBRANCH   4  12
TORSDOF 5
ENDMDL
MODEL 3
REMARK VINA RESULT:      -5.7      0.753      2.229
REMARK  Name = min_compound957.pdb
REMARK  7 active torsions:
REMARK  status: ('A' for Active; 'I' for Inactive)
REMARK    1  A    between atoms: _2  and  _14
REMARK    2  A    between atoms: _4  and  _18
REMARK    3  A    between atoms: _5  and  _17
REMARK    4  A    between atoms: _6  and  _18
REMARK    5  A    between atoms: _14  and  _15
REMARK    6  A    between atoms: _14  and  _16
REMARK    7  A    between atoms: _17  and  _19
REMARK                            x       y       z     vdW  Elec       q    Type
REMARK                         _______ _______ _______ _____ _____    ______ ____
ROOT
ATOM      1  N   UNL     1     -16.311   4.238 -16.400  0.00  0.00    -0.240 NA
ATOM      2  C   UNL     1     -15.646   4.624 -17.523  0.00  0.00    +0.136 A 
ATOM      3  C   UNL     1     -14.281   4.504 -17.360  0.00  0.00    +0.064 A 
ATOM      4  N   UNL     1     -14.131   3.888 -16.133  0.00  0.00    -0.325 N 
ATOM      5  C   UNL     1     -15.385   3.874 -15.535  0.00  0.00    +0.113 A 
ENDROOT
BRANCH   5   6
ATOM      6  C   UNL     1     -15.651   3.533 -14.091  0.00  0.00    +0.049 C 
ATOM      7  C   UNL     1     -16.935   2.720 -13.952  0.00  0.00    +0.015 C 
ATOM      8  C   UNL     1     -15.730   4.805 -13.242  0.00  0.00    +0.015 C 
ENDBRANCH   5   6
BRANCH   3   9
ATOM      9  C   UNL     1     -13.203   4.953 -18.266  0.00  0.00    +0.210 C 
BRANCH   9  10
ATOM     10  O   UNL     1     -13.038   3.924 -19.228  0.00  0.00    -0.389 OA
ATOM     11  H   UNL     1     -13.656   3.213 -18.979  0.00  0.00    +0.210 HD
ENDBRANCH   9  10
ENDBRANCH   3   9
BRANCH   4  12
ATOM     12  C   UNL     1     -12.897   3.443 -15.476  0.00  0.00    +0.161 C 
BRANCH  12  13
ATOM     13  C   UNL     1     -12.079   2.385 -16.190  0.00  0.00    +0.009 A 
ATOM     14  C   UNL     1     -10.791   2.633 -16.708  0.00  0.00    +0.047 A 
ATOM     15  C   UNL     1     -10.057   1.623 -17.348  0.00  0.00    +0.020 A 
ATOM     16  C   UNL     1     -10.605   0.360 -17.533  0.00  0.00    +0.003 A 
ATOM     17  C   UNL     1     -11.898   0.109 -17.093  0.00  0.00    +0.020 A 
ATOM     18 CL   UNL     1     -10.038   4.187 -16.638  0.00  0.00    -0.083 Cl
ATOM     19  C   UNL     1     -12.631   1.109 -16.437  0.00  0.00    +0.047 A 
ATOM     20 CL   UNL     1     -14.251   0.692 -15.989  0.00  0.00    -0.083 Cl
ENDBRANCH  12  13
ENDBRANCH   4  12
TORSDOF 5
ENDMDL
MODEL 4
REMARK VINA RESULT:      -5.6      2.355      3.222
REMARK  Name = min_compound957.pdb
REMARK  7 active torsions:
REMARK  status: ('A' for Active; 'I' for Inactive)
REMARK    1  A    between atoms: _2  and  _14
REMARK    2  A    between atoms: _4  and  _18
REMARK    3  A    between atoms: _5  and  _17
REMARK    4  A    between atoms: _6  and  _18
REMARK    5  A    between atoms: _14  and  _15
REMARK    6  A    between atoms: _14  and  _16
REMARK    7  A    between atoms: _17  and  _19
REMARK                            x       y       z     vdW  Elec       q    Type
REMARK                         _______ _______ _______ _____ _____    ______ ____
ROOT
ATOM      1  N   UNL     1     -16.621   3.830 -17.417  0.00  0.00    -0.240 NA
ATOM      2  C   UNL     1     -16.617   4.188 -18.731  0.00  0.00    +0.136 A 
ATOM      3  C   UNL     1     -15.412   3.877 -19.328  0.00  0.00    +0.064 A 
ATOM      4  N   UNL     1     -14.717   3.176 -18.361  0.00  0.00    -0.325 N 
ATOM      5  C   UNL     1     -15.440   3.296 -17.181  0.00  0.00    +0.113 A 
ENDROOT
BRANCH   5   6
ATOM      6  C   UNL     1     -14.934   2.910 -15.814  0.00  0.00    +0.049 C 
ATOM      7  C   UNL     1     -15.950   2.035 -15.086  0.00  0.00    +0.015 C 
ATOM      8  C   UNL     1     -14.612   4.158 -14.986  0.00  0.00    +0.015 C 
ENDBRANCH   5   6
BRANCH   3   9
ATOM      9  C   UNL     1     -14.939   4.229 -20.682  0.00  0.00    +0.210 C 
BRANCH   9  10
ATOM     10  O   UNL     1     -15.216   3.107 -21.504  0.00  0.00    -0.389 OA
ATOM     11  H   UNL     1     -16.035   3.316 -21.988  0.00  0.00    +0.210 HD
ENDBRANCH   9  10
ENDBRANCH   3   9
BRANCH   4  12
ATOM     12  C   UNL     1     -13.403   2.532 -18.464  0.00  0.00    +0.161 C 
BRANCH  12  13
ATOM     13  C   UNL     1     -12.332   2.992 -17.496  0.00  0.00    +0.009 A 
ATOM     14  C   UNL     1     -11.793   4.295 -17.513  0.00  0.00    +0.047 A 
ATOM     15  C   UNL     1     -10.813   4.691 -16.590  0.00  0.00    +0.020 A 
ATOM     16  C   UNL     1     -10.310   3.786 -15.663  0.00  0.00    +0.003 A 
ATOM     17  C   UNL     1     -10.774   2.477 -15.669  0.00  0.00    +0.020 A 
ATOM     18 CL   UNL     1     -12.255   5.483 -18.681  0.00  0.00    -0.083 Cl
ATOM     19  C   UNL     1     -11.766   2.081 -16.578  0.00  0.00    +0.047 A 
ATOM     20 CL   UNL     1     -12.218   0.410 -16.525  0.00  0.00    -0.083 Cl
ENDBRANCH  12  13
ENDBRANCH   4  12
TORSDOF 5
ENDMDL
MODEL 5
REMARK VINA RESULT:      -5.6     10.988     12.558
REMARK  Name = min_compound957.pdb
REMARK  7 active torsions:
REMARK  status: ('A' for Active; 'I' for Inactive)
REMARK    1  A    between atoms: _2  and  _14
REMARK    2  A    between atoms: _4  and  _18
REMARK    3  A    between atoms: _5  and  _17
REMARK    4  A    between atoms: _6  and  _18
REMARK    5  A    between atoms: _14  and  _15
REMARK    6  A    between atoms: _14  and  _16
REMARK    7  A    between atoms: _17  and  _19
REMARK                            x       y       z     vdW  Elec       q    Type
REMARK                         _______ _______ _______ _____ _____    ______ ____
ROOT
ATOM      1  N   UNL     1     -18.877  -0.256  -7.241  0.00  0.00    -0.240 NA
ATOM      2  C   UNL     1     -17.631  -0.555  -7.702  0.00  0.00    +0.136 A 
ATOM      3  C   UNL     1     -16.695  -0.483  -6.691  0.00  0.00    +0.064 A 
ATOM      4  N   UNL     1     -17.438  -0.265  -5.546  0.00  0.00    -0.325 N 
ATOM      5  C   UNL     1     -18.738   0.000  -5.956  0.00  0.00    +0.113 A 
ENDROOT
BRANCH   5   6
ATOM      6  C   UNL     1     -19.830   0.544  -5.070  0.00  0.00    +0.049 C 
ATOM      7  C   UNL     1     -20.726  -0.580  -4.560  0.00  0.00    +0.015 C 
ATOM      8  C   UNL     1     -20.661   1.591  -5.818  0.00  0.00    +0.015 C 
ENDBRANCH   5   6
BRANCH   3   9
ATOM      9  C   UNL     1     -15.224  -0.583  -6.790  0.00  0.00    +0.210 C 
BRANCH   9  10
ATOM     10  O   UNL     1     -14.885  -1.892  -6.365  0.00  0.00    -0.389 OA
ATOM     11  H   UNL     1     -14.758  -2.420  -7.174  0.00  0.00    +0.210 HD
ENDBRANCH   9  10
ENDBRANCH   3   9
BRANCH   4  12
ATOM     12  C   UNL     1     -16.974  -0.178  -4.157  0.00  0.00    +0.161 C 
BRANCH  12  13
ATOM     13  C   UNL     1     -15.722   0.636  -3.897  0.00  0.00    +0.009 A 
ATOM     14  C   UNL     1     -14.537   0.073  -3.382  0.00  0.00    +0.047 A 
ATOM     15  C   UNL     1     -13.391   0.856  -3.169  0.00  0.00    +0.020 A 
ATOM     16  C   UNL     1     -13.414   2.223  -3.417  0.00  0.00    +0.003 A 
ATOM     17  C   UNL     1     -14.590   2.814  -3.860  0.00  0.00    +0.020 A 
ATOM     18 CL   UNL     1     -14.408  -1.591  -2.933  0.00  0.00    -0.083 Cl
ATOM     19  C   UNL     1     -15.732   2.035  -4.091  0.00  0.00    +0.047 A 
ATOM     20 CL   UNL     1     -17.151   2.896  -4.586  0.00  0.00    -0.083 Cl
ENDBRANCH  12  13
ENDBRANCH   4  12
TORSDOF 5
ENDMDL
MODEL 6
REMARK VINA RESULT:      -5.6     10.614     12.561
REMARK  Name = min_compound957.pdb
REMARK  7 active torsions:
REMARK  status: ('A' for Active; 'I' for Inactive)
REMARK    1  A    between atoms: _2  and  _14
REMARK    2  A    between atoms: _4  and  _18
REMARK    3  A    between atoms: _5  and  _17
REMARK    4  A    between atoms: _6  and  _18
REMARK    5  A    between atoms: _14  and  _15
REMARK    6  A    between atoms: _14  and  _16
REMARK    7  A    between atoms: _17  and  _19
REMARK                            x       y       z     vdW  Elec       q    Type
REMARK                         _______ _______ _______ _____ _____    ______ ____
ROOT
ATOM      1  N   UNL     1     -18.108   1.419  -7.511  0.00  0.00    -0.240 NA
ATOM      2  C   UNL     1     -19.188   1.968  -6.888  0.00  0.00    +0.136 A 
ATOM      3  C   UNL     1     -19.163   1.713  -5.532  0.00  0.00    +0.064 A 
ATOM      4  N   UNL     1     -17.943   1.102  -5.316  0.00  0.00    -0.325 N 
ATOM      5  C   UNL     1     -17.405   0.826  -6.567  0.00  0.00    +0.113 A 
ENDROOT
BRANCH   5   6
ATOM      6  C   UNL     1     -16.212  -0.059  -6.818  0.00  0.00    +0.049 C 
ATOM      7  C   UNL     1     -14.988   0.772  -7.193  0.00  0.00    +0.015 C 
ATOM      8  C   UNL     1     -16.520  -1.081  -7.918  0.00  0.00    +0.015 C 
ENDBRANCH   5   6
BRANCH   3   9
ATOM      9  C   UNL     1     -20.207   1.993  -4.524  0.00  0.00    +0.210 C 
BRANCH   9  10
ATOM     10  O   UNL     1     -19.864   3.235  -3.932  0.00  0.00    -0.389 OA
ATOM     11  H   UNL     1     -18.898   3.223  -3.807  0.00  0.00    +0.210 HD
ENDBRANCH   9  10
ENDBRANCH   3   9
BRANCH   4  12
ATOM     12  C   UNL     1     -17.344   0.676  -4.046  0.00  0.00    +0.161 C 
BRANCH  12  13
ATOM     13  C   UNL     1     -15.904   1.076  -3.794  0.00  0.00    +0.009 A 
ATOM     14  C   UNL     1     -15.457   2.412  -3.867  0.00  0.00    +0.047 A 
ATOM     15  C   UNL     1     -14.118   2.746  -3.611  0.00  0.00    +0.020 A 
ATOM     16  C   UNL     1     -13.185   1.757  -3.327  0.00  0.00    +0.003 A 
ATOM     17  C   UNL     1     -13.585   0.427  -3.316  0.00  0.00    +0.020 A 
ATOM     18 CL   UNL     1     -16.491   3.722  -4.314  0.00  0.00    -0.083 Cl
ATOM     19  C   UNL     1     -14.925   0.088  -3.553  0.00  0.00    +0.047 A 
ATOM     20 CL   UNL     1     -15.287  -1.606  -3.571  0.00  0.00    -0.083 Cl
ENDBRANCH  12  13
ENDBRANCH   4  12
TORSDOF 5
ENDMDL
MODEL 7
REMARK VINA RESULT:      -5.5      1.666      3.254
REMARK  Name = min_compound957.pdb
REMARK  7 active torsions:
REMARK  status: ('A' for Active; 'I' for Inactive)
REMARK    1  A    between atoms: _2  and  _14
REMARK    2  A    between atoms: _4  and  _18
REMARK    3  A    between atoms: _5  and  _17
REMARK    4  A    between atoms: _6  and  _18
REMARK    5  A    between atoms: _14  and  _15
REMARK    6  A    between atoms: _14  and  _16
REMARK    7  A    between atoms: _17  and  _19
REMARK                            x       y       z     vdW  Elec       q    Type
REMARK                         _______ _______ _______ _____ _____    ______ ____
ROOT
ATOM      1  N   UNL     1     -15.169   5.513 -17.345  0.00  0.00    -0.240 NA
ATOM      2  C   UNL     1     -16.074   4.944 -16.503  0.00  0.00    +0.136 A 
ATOM      3  C   UNL     1     -15.468   4.035 -15.661  0.00  0.00    +0.064 A 
ATOM      4  N   UNL     1     -14.117   4.170 -15.919  0.00  0.00    -0.325 N 
ATOM      5  C   UNL     1     -14.003   4.979 -17.043  0.00  0.00    +0.113 A 
ENDROOT
BRANCH   5   6
ATOM      6  C   UNL     1     -12.736   5.186 -17.832  0.00  0.00    +0.049 C 
ATOM      7  C   UNL     1     -12.300   6.648 -17.786  0.00  0.00    +0.015 C 
ATOM      8  C   UNL     1     -12.924   4.732 -19.283  0.00  0.00    +0.015 C 
ENDBRANCH   5   6
BRANCH   3   9
ATOM      9  C   UNL     1     -16.101   3.097 -14.710  0.00  0.00    +0.210 C 
BRANCH   9  10
ATOM     10  O   UNL     1     -17.033   2.338 -15.461  0.00  0.00    -0.389 OA
ATOM     11  H   UNL     1     -17.180   1.513 -14.965  0.00  0.00    +0.210 HD
ENDBRANCH   9  10
ENDBRANCH   3   9
BRANCH   4  12
ATOM     12  C   UNL     1     -12.988   3.503 -15.261  0.00  0.00    +0.161 C 
BRANCH  12  13
ATOM     13  C   UNL     1     -12.166   2.548 -16.102  0.00  0.00    +0.009 A 
ATOM     14  C   UNL     1     -12.645   1.290 -16.521  0.00  0.00    +0.047 A 
ATOM     15  C   UNL     1     -11.860   0.439 -17.314  0.00  0.00    +0.020 A 
ATOM     16  C   UNL     1     -10.564   0.797 -17.665  0.00  0.00    +0.003 A 
ATOM     17  C   UNL     1     -10.043   2.000 -17.208  0.00  0.00    +0.020 A 
ATOM     18 CL   UNL     1     -14.196   0.681 -16.066  0.00  0.00    -0.083 Cl
ATOM     19  C   UNL     1     -10.829   2.863 -16.431  0.00  0.00    +0.047 A 
ATOM     20 CL   UNL     1     -10.047   4.305 -15.874  0.00  0.00    -0.083 Cl
ENDBRANCH  12  13
ENDBRANCH   4  12
TORSDOF 5
ENDMDL
MODEL 8
REMARK VINA RESULT:      -5.5      2.695      5.069
REMARK  Name = min_compound957.pdb
REMARK  7 active torsions:
REMARK  status: ('A' for Active; 'I' for Inactive)
REMARK    1  A    between atoms: _2  and  _14
REMARK    2  A    between atoms: _4  and  _18
REMARK    3  A    between atoms: _5  and  _17
REMARK    4  A    between atoms: _6  and  _18
REMARK    5  A    between atoms: _14  and  _15
REMARK    6  A    between atoms: _14  and  _16
REMARK    7  A    between atoms: _17  and  _19
REMARK                            x       y       z     vdW  Elec       q    Type
REMARK                         _______ _______ _______ _____ _____    ______ ____
ROOT
ATOM      1  N   UNL     1     -10.512   1.991 -15.688  0.00  0.00    -0.240 NA
ATOM      2  C   UNL     1     -10.589   3.330 -15.922  0.00  0.00    +0.136 A 
ATOM      3  C   UNL     1     -11.320   3.596 -17.062  0.00  0.00    +0.064 A 
ATOM      4  N   UNL     1     -11.817   2.366 -17.449  0.00  0.00    -0.325 N 
ATOM      5  C   UNL     1     -11.185   1.412 -16.662  0.00  0.00    +0.113 A 
ENDROOT
BRANCH   5   6
ATOM      6  C   UNL     1     -11.226  -0.075 -16.907  0.00  0.00    +0.049 C 
ATOM      7  C   UNL     1     -12.438  -0.704 -16.225  0.00  0.00    +0.015 C 
ATOM      8  C   UNL     1      -9.934  -0.738 -16.418  0.00  0.00    +0.015 C 
ENDBRANCH   5   6
BRANCH   3   9
ATOM      9  C   UNL     1     -11.516   4.890 -17.748  0.00  0.00    +0.210 C 
BRANCH   9  10
ATOM     10  O   UNL     1     -12.579   5.541 -17.073  0.00  0.00    -0.389 OA
ATOM     11  H   UNL     1     -12.941   4.894 -16.441  0.00  0.00    +0.210 HD
ENDBRANCH   9  10
ENDBRANCH   3   9
BRANCH   4  12
ATOM     12  C   UNL     1     -12.725   2.055 -18.558  0.00  0.00    +0.161 C 
BRANCH  12  13
ATOM     13  C   UNL     1     -14.016   2.846 -18.636  0.00  0.00    +0.009 A 
ATOM     14  C   UNL     1     -14.894   2.987 -17.541  0.00  0.00    +0.047 A 
ATOM     15  C   UNL     1     -16.073   3.742 -17.646  0.00  0.00    +0.020 A 
ATOM     16  C   UNL     1     -16.430   4.330 -18.853  0.00  0.00    +0.003 A 
ATOM     17  C   UNL     1     -15.617   4.149 -19.964  0.00  0.00    +0.020 A 
ATOM     18 CL   UNL     1     -14.621   2.220 -16.017  0.00  0.00    -0.083 Cl
ATOM     19  C   UNL     1     -14.430   3.411 -19.862  0.00  0.00    +0.047 A 
ATOM     20 CL   UNL     1     -13.533   3.208 -21.330  0.00  0.00    -0.083 Cl
ENDBRANCH  12  13
ENDBRANCH   4  12
TORSDOF 5
ENDMDL
MODEL 9
REMARK VINA RESULT:      -5.4      2.430      2.847
REMARK  Name = min_compound957.pdb
REMARK  7 active torsions:
REMARK  status: ('A' for Active; 'I' for Inactive)
REMARK    1  A    between atoms: _2  and  _14
REMARK    2  A    between atoms: _4  and  _18
REMARK    3  A    between atoms: _5  and  _17
REMARK    4  A    between atoms: _6  and  _18
REMARK    5  A    between atoms: _14  and  _15
REMARK    6  A    between atoms: _14  and  _16
REMARK    7  A    between atoms: _17  and  _19
REMARK                            x       y       z     vdW  Elec       q    Type
REMARK                         _______ _______ _______ _____ _____    ______ ____
ROOT
ATOM      1  N   UNL     1     -16.540   3.834 -17.625  0.00  0.00    -0.240 NA
ATOM      2  C   UNL     1     -16.539   4.162 -18.946  0.00  0.00    +0.136 A 
ATOM      3  C   UNL     1     -15.340   3.830 -19.541  0.00  0.00    +0.064 A 
ATOM      4  N   UNL     1     -14.643   3.147 -18.562  0.00  0.00    -0.325 N 
ATOM      5  C   UNL     1     -15.360   3.299 -17.382  0.00  0.00    +0.113 A 
ENDROOT
BRANCH   5   6
ATOM      6  C   UNL     1     -14.849   2.941 -16.009  0.00  0.00    +0.049 C 
ATOM      7  C   UNL     1     -15.811   1.991 -15.302  0.00  0.00    +0.015 C 
ATOM      8  C   UNL     1     -14.632   4.204 -15.169  0.00  0.00    +0.015 C 
ENDBRANCH   5   6
BRANCH   3   9
ATOM      9  C   UNL     1     -14.871   4.147 -20.906  0.00  0.00    +0.210 C 
BRANCH   9  10
ATOM     10  O   UNL     1     -15.151   3.006 -21.699  0.00  0.00    -0.389 OA
ATOM     11  H   UNL     1     -15.919   3.237 -22.252  0.00  0.00    +0.210 HD
ENDBRANCH   9  10
ENDBRANCH   3   9
BRANCH   4  12
ATOM     12  C   UNL     1     -13.334   2.494 -18.657  0.00  0.00    +0.161 C 
BRANCH  12  13
ATOM     13  C   UNL     1     -12.291   2.887 -17.630  0.00  0.00    +0.009 A 
ATOM     14  C   UNL     1     -11.812   1.998 -16.646  0.00  0.00    +0.047 A 
ATOM     15  C   UNL     1     -10.834   2.393 -15.721  0.00  0.00    +0.020 A 
ATOM     16  C   UNL     1     -10.346   3.694 -15.722  0.00  0.00    +0.003 A 
ATOM     17  C   UNL     1     -10.850   4.609 -16.637  0.00  0.00    +0.020 A 
ATOM     18 CL   UNL     1     -12.412   0.387 -16.469  0.00  0.00    -0.083 Cl
ATOM     19  C   UNL     1     -11.815   4.216 -17.575  0.00  0.00    +0.047 A 
ATOM     20 CL   UNL     1     -12.407   5.461 -18.623  0.00  0.00    -0.083 Cl
ENDBRANCH  12  13
ENDBRANCH   4  12
TORSDOF 5
ENDMDL
