MODEL 1
REMARK VINA RESULT:      -6.2      0.000      0.000
REMARK  Name = min_compound915.pdb
REMARK  4 active torsions:
REMARK  status: ('A' for Active; 'I' for Inactive)
REMARK    1  A    between atoms: _4  and  _6
REMARK    2  A    between atoms: _7  and  _18
REMARK    3  A    between atoms: _10  and  _11
REMARK    4  A    between atoms: _18  and  _19
REMARK                            x       y       z     vdW  Elec       q    Type
REMARK                         _______ _______ _______ _____ _____    ______ ____
ROOT
ATOM      1  C   UNL     1     -13.052   3.805 -19.412  0.00  0.00    +0.222 C 
ATOM      2  N   UNL     1     -12.813   2.568 -18.821  0.00  0.00    -0.227 N 
ATOM      3  N   UNL     1     -13.346   1.565 -19.577  0.00  0.00    -0.269 N 
ATOM      4  H   UNL     1     -13.472   0.621 -19.324  0.00  0.00    +0.170 HD
ATOM      5  C   UNL     1     -13.656   2.147 -20.732  0.00  0.00    +0.092 C 
ATOM      6  C   UNL     1     -13.476   3.537 -20.700  0.00  0.00    +0.001 C 
ENDROOT
BRANCH   2   7
ATOM      7  C   UNL     1     -12.016   2.203 -17.692  0.00  0.00    +0.052 A 
ATOM      8  C   UNL     1     -11.277   1.009 -17.743  0.00  0.00    +0.044 A 
ATOM      9  C   UNL     1     -10.473   0.640 -16.664  0.00  0.00    +0.043 A 
ATOM     10 CL   UNL     1      -9.584  -0.833 -16.725  0.00  0.00    -0.083 Cl
ATOM     11  C   UNL     1     -10.381   1.454 -15.539  0.00  0.00    +0.020 A 
ATOM     12  C   UNL     1     -11.088   2.655 -15.495  0.00  0.00    +0.003 A 
ATOM     13  C   UNL     1     -11.895   3.036 -16.572  0.00  0.00    +0.025 A 
ENDBRANCH   2   7
BRANCH   1  17
ATOM     14  C   UNL     1     -12.197   7.067 -18.120  0.00  0.00    +0.019 A 
ATOM     15  C   UNL     1     -13.479   6.881 -17.569  0.00  0.00    +0.019 A 
ATOM     16  C   UNL     1     -13.929   5.651 -17.997  0.00  0.00    +0.088 A 
ATOM     17  N   UNL     1     -12.958   5.047 -18.779  0.00  0.00    -0.330 N 
ATOM     18  C   UNL     1     -11.911   5.945 -18.867  0.00  0.00    +0.088 A 
ENDBRANCH   1  17
BRANCH   6  19
ATOM     19  C   UNL     1     -13.830   4.440 -21.742  0.00  0.00    +0.114 C 
BRANCH  19  20
ATOM     20  N   UNL     1     -14.180   5.356 -22.815  0.00  0.00    -0.326 NA
ATOM     21  H   UNL     1     -13.336   5.625 -23.321  0.00  0.00    +0.119 HD
ATOM     22  H   UNL     1     -14.829   4.898 -23.454  0.00  0.00    +0.119 HD
ENDBRANCH  19  20
ENDBRANCH   6  19
TORSDOF 4
ENDMDL
MODEL 2
REMARK VINA RESULT:      -6.2      3.885      5.175
REMARK  Name = min_compound915.pdb
REMARK  4 active torsions:
REMARK  status: ('A' for Active; 'I' for Inactive)
REMARK    1  A    between atoms: _4  and  _6
REMARK    2  A    between atoms: _7  and  _18
REMARK    3  A    between atoms: _10  and  _11
REMARK    4  A    between atoms: _18  and  _19
REMARK                            x       y       z     vdW  Elec       q    Type
REMARK                         _______ _______ _______ _____ _____    ______ ____
ROOT
ATOM      1  C   UNL     1     -14.107   2.848 -17.368  0.00  0.00    +0.222 C 
ATOM      2  N   UNL     1     -15.146   3.503 -16.715  0.00  0.00    -0.227 N 
ATOM      3  N   UNL     1     -15.919   4.185 -17.609  0.00  0.00    -0.269 N 
ATOM      4  H   UNL     1     -16.611   4.860 -17.417  0.00  0.00    +0.170 HD
ATOM      5  C   UNL     1     -15.530   3.735 -18.799  0.00  0.00    +0.092 C 
ATOM      6  C   UNL     1     -14.419   2.883 -18.714  0.00  0.00    +0.001 C 
ENDROOT
BRANCH   2   7
ATOM      7  C   UNL     1     -15.586   3.450 -15.356  0.00  0.00    +0.052 A 
ATOM      8  C   UNL     1     -14.969   4.286 -14.410  0.00  0.00    +0.044 A 
ATOM      9  C   UNL     1     -15.394   4.270 -13.082  0.00  0.00    +0.043 A 
ATOM     10 CL   UNL     1     -14.622   5.283 -11.925  0.00  0.00    -0.083 Cl
ATOM     11  C   UNL     1     -16.440   3.441 -12.684  0.00  0.00    +0.020 A 
ATOM     12  C   UNL     1     -17.077   2.632 -13.623  0.00  0.00    +0.003 A 
ATOM     13  C   UNL     1     -16.660   2.643 -14.958  0.00  0.00    +0.025 A 
ENDBRANCH   2   7
BRANCH   1  17
ATOM     14  C   UNL     1     -11.342   0.927 -16.063  0.00  0.00    +0.019 A 
ATOM     15  C   UNL     1     -10.960   2.234 -15.707  0.00  0.00    +0.019 A 
ATOM     16  C   UNL     1     -11.947   3.081 -16.160  0.00  0.00    +0.088 A 
ATOM     17  N   UNL     1     -12.951   2.345 -16.766  0.00  0.00    -0.330 N 
ATOM     18  C   UNL     1     -12.548   1.023 -16.723  0.00  0.00    +0.088 A 
ENDBRANCH   1  17
BRANCH   6  19
ATOM     19  C   UNL     1     -13.710   2.339 -19.822  0.00  0.00    +0.114 C 
BRANCH  19  20
ATOM     20  N   UNL     1     -12.983   1.770 -20.945  0.00  0.00    -0.326 NA
ATOM     21  H   UNL     1     -13.435   0.904 -21.238  0.00  0.00    +0.119 HD
ATOM     22  H   UNL     1     -12.983   2.433 -21.720  0.00  0.00    +0.119 HD
ENDBRANCH  19  20
ENDBRANCH   6  19
TORSDOF 4
ENDMDL
MODEL 3
REMARK VINA RESULT:      -6.2      3.102      3.767
REMARK  Name = min_compound915.pdb
REMARK  4 active torsions:
REMARK  status: ('A' for Active; 'I' for Inactive)
REMARK    1  A    between atoms: _4  and  _6
REMARK    2  A    between atoms: _7  and  _18
REMARK    3  A    between atoms: _10  and  _11
REMARK    4  A    between atoms: _18  and  _19
REMARK                            x       y       z     vdW  Elec       q    Type
REMARK                         _______ _______ _______ _____ _____    ______ ____
ROOT
ATOM      1  C   UNL     1     -15.156   3.349 -16.972  0.00  0.00    +0.222 C 
ATOM      2  N   UNL     1     -13.997   2.763 -17.472  0.00  0.00    -0.227 N 
ATOM      3  N   UNL     1     -14.045   2.694 -18.834  0.00  0.00    -0.269 N 
ATOM      4  H   UNL     1     -13.450   2.187 -19.433  0.00  0.00    +0.170 HD
ATOM      5  C   UNL     1     -15.075   3.466 -19.171  0.00  0.00    +0.092 C 
ATOM      6  C   UNL     1     -15.794   3.920 -18.057  0.00  0.00    +0.001 C 
ENDROOT
BRANCH   2   7
ATOM      7  C   UNL     1     -12.780   2.385 -16.826  0.00  0.00    +0.052 A 
ATOM      8  C   UNL     1     -12.363   1.045 -16.896  0.00  0.00    +0.044 A 
ATOM      9  C   UNL     1     -11.167   0.654 -16.294  0.00  0.00    +0.043 A 
ATOM     10 CL   UNL     1     -10.671  -0.992 -16.367  0.00  0.00    -0.083 Cl
ATOM     11  C   UNL     1     -10.370   1.585 -15.633  0.00  0.00    +0.020 A 
ATOM     12  C   UNL     1     -10.762   2.922 -15.587  0.00  0.00    +0.003 A 
ATOM     13  C   UNL     1     -11.958   3.325 -16.191  0.00  0.00    +0.025 A 
ENDBRANCH   2   7
BRANCH   1  17
ATOM     14  C   UNL     1     -15.957   3.778 -13.478  0.00  0.00    +0.019 A 
ATOM     15  C   UNL     1     -16.702   2.625 -13.790  0.00  0.00    +0.019 A 
ATOM     16  C   UNL     1     -16.482   2.351 -15.122  0.00  0.00    +0.088 A 
ATOM     17  N   UNL     1     -15.603   3.281 -15.650  0.00  0.00    -0.330 N 
ATOM     18  C   UNL     1     -15.313   4.168 -14.631  0.00  0.00    +0.088 A 
ENDBRANCH   1  17
BRANCH   6  19
ATOM     19  C   UNL     1     -17.006   4.665 -18.105  0.00  0.00    +0.114 C 
BRANCH  19  20
ATOM     20  N   UNL     1     -18.236   5.439 -18.157  0.00  0.00    -0.326 NA
ATOM     21  H   UNL     1     -18.180   6.114 -18.920  0.00  0.00    +0.119 HD
ATOM     22  H   UNL     1     -19.025   4.812 -18.314  0.00  0.00    +0.119 HD
ENDBRANCH  19  20
ENDBRANCH   6  19
TORSDOF 4
ENDMDL
MODEL 4
REMARK VINA RESULT:      -6.1     10.947     13.064
REMARK  Name = min_compound915.pdb
REMARK  4 active torsions:
REMARK  status: ('A' for Active; 'I' for Inactive)
REMARK    1  A    between atoms: _4  and  _6
REMARK    2  A    between atoms: _7  and  _18
REMARK    3  A    between atoms: _10  and  _11
REMARK    4  A    between atoms: _18  and  _19
REMARK                            x       y       z     vdW  Elec       q    Type
REMARK                         _______ _______ _______ _____ _____    ______ ____
ROOT
ATOM      1  C   UNL     1     -17.450   0.964  -7.044  0.00  0.00    +0.222 C 
ATOM      2  N   UNL     1     -17.927   1.877  -7.979  0.00  0.00    -0.227 N 
ATOM      3  N   UNL     1     -19.148   1.489  -8.449  0.00  0.00    -0.269 N 
ATOM      4  H   UNL     1     -19.637   1.847  -9.225  0.00  0.00    +0.170 HD
ATOM      5  C   UNL     1     -19.530   0.519  -7.622  0.00  0.00    +0.092 C 
ATOM      6  C   UNL     1     -18.525   0.161  -6.713  0.00  0.00    +0.001 C 
ENDROOT
BRANCH   2   7
ATOM      7  C   UNL     1     -17.431   3.155  -8.384  0.00  0.00    +0.052 A 
ATOM      8  C   UNL     1     -16.563   3.227  -9.487  0.00  0.00    +0.044 A 
ATOM      9  C   UNL     1     -16.082   4.464  -9.916  0.00  0.00    +0.043 A 
ATOM     10 CL   UNL     1     -15.005   4.544 -11.257  0.00  0.00    -0.083 Cl
ATOM     11  C   UNL     1     -16.467   5.636  -9.271  0.00  0.00    +0.020 A 
ATOM     12  C   UNL     1     -17.352   5.574  -8.196  0.00  0.00    +0.003 A 
ATOM     13  C   UNL     1     -17.843   4.339  -7.759  0.00  0.00    +0.025 A 
ENDBRANCH   2   7
BRANCH   1  17
ATOM     14  C   UNL     1     -14.222   1.130  -5.435  0.00  0.00    +0.019 A 
ATOM     15  C   UNL     1     -13.992   0.140  -6.410  0.00  0.00    +0.019 A 
ATOM     16  C   UNL     1     -15.170  -0.025  -7.104  0.00  0.00    +0.088 A 
ATOM     17  N   UNL     1     -16.126   0.849  -6.613  0.00  0.00    -0.330 N 
ATOM     18  C   UNL     1     -15.533   1.531  -5.568  0.00  0.00    +0.088 A 
ENDBRANCH   1  17
BRANCH   6  19
ATOM     19  C   UNL     1     -18.597  -0.917  -5.785  0.00  0.00    +0.114 C 
BRANCH  19  20
ATOM     20  N   UNL     1     -18.658  -2.013  -4.832  0.00  0.00    -0.326 NA
ATOM     21  H   UNL     1     -18.915  -2.872  -5.318  0.00  0.00    +0.119 HD
ATOM     22  H   UNL     1     -17.746  -2.130  -4.391  0.00  0.00    +0.119 HD
ENDBRANCH  19  20
ENDBRANCH   6  19
TORSDOF 4
ENDMDL
MODEL 5
REMARK VINA RESULT:      -6.1     13.858     15.714
REMARK  Name = min_compound915.pdb
REMARK  4 active torsions:
REMARK  status: ('A' for Active; 'I' for Inactive)
REMARK    1  A    between atoms: _4  and  _6
REMARK    2  A    between atoms: _7  and  _18
REMARK    3  A    between atoms: _10  and  _11
REMARK    4  A    between atoms: _18  and  _19
REMARK                            x       y       z     vdW  Elec       q    Type
REMARK                         _______ _______ _______ _____ _____    ______ ____
ROOT
ATOM      1  C   UNL     1     -16.113  -0.107  -4.712  0.00  0.00    +0.222 C 
ATOM      2  N   UNL     1     -16.680  -1.125  -3.952  0.00  0.00    -0.227 N 
ATOM      3  N   UNL     1     -17.814  -1.594  -4.549  0.00  0.00    -0.269 N 
ATOM      4  H   UNL     1     -18.499  -2.187  -4.162  0.00  0.00    +0.170 HD
ATOM      5  C   UNL     1     -17.786  -1.073  -5.773  0.00  0.00    +0.092 C 
ATOM      6  C   UNL     1     -16.740  -0.155  -5.942  0.00  0.00    +0.001 C 
ENDROOT
BRANCH   2   7
ATOM      7  C   UNL     1     -16.203  -1.811  -2.792  0.00  0.00    +0.052 A 
ATOM      8  C   UNL     1     -15.207  -2.790  -2.946  0.00  0.00    +0.044 A 
ATOM      9  C   UNL     1     -14.708  -3.458  -1.828  0.00  0.00    +0.043 A 
ATOM     10 CL   UNL     1     -13.500  -4.669  -2.025  0.00  0.00    -0.083 Cl
ATOM     11  C   UNL     1     -15.177  -3.154  -0.553  0.00  0.00    +0.020 A 
ATOM     12  C   UNL     1     -16.143  -2.162  -0.390  0.00  0.00    +0.003 A 
ATOM     13  C   UNL     1     -16.649  -1.484  -1.505  0.00  0.00    +0.025 A 
ENDBRANCH   2   7
BRANCH   1  17
ATOM     14  C   UNL     1     -14.204   2.736  -3.567  0.00  0.00    +0.019 A 
ATOM     15  C   UNL     1     -13.240   1.713  -3.498  0.00  0.00    +0.019 A 
ATOM     16  C   UNL     1     -13.853   0.551  -3.912  0.00  0.00    +0.088 A 
ATOM     17  N   UNL     1     -15.166   0.818  -4.265  0.00  0.00    -0.330 N 
ATOM     18  C   UNL     1     -15.372   2.162  -4.018  0.00  0.00    +0.088 A 
ENDBRANCH   1  17
BRANCH   6  19
ATOM     19  C   UNL     1     -16.525   0.646  -7.100  0.00  0.00    +0.114 C 
BRANCH  19  20
ATOM     20  N   UNL     1     -16.301   1.476  -8.272  0.00  0.00    -0.326 NA
ATOM     21  H   UNL     1     -16.320   0.893  -9.109  0.00  0.00    +0.119 HD
ATOM     22  H   UNL     1     -17.034   2.182  -8.333  0.00  0.00    +0.119 HD
ENDBRANCH  19  20
ENDBRANCH   6  19
TORSDOF 4
ENDMDL
MODEL 6
REMARK VINA RESULT:      -6.1      2.330      3.360
REMARK  Name = min_compound915.pdb
REMARK  4 active torsions:
REMARK  status: ('A' for Active; 'I' for Inactive)
REMARK    1  A    between atoms: _4  and  _6
REMARK    2  A    between atoms: _7  and  _18
REMARK    3  A    between atoms: _10  and  _11
REMARK    4  A    between atoms: _18  and  _19
REMARK                            x       y       z     vdW  Elec       q    Type
REMARK                         _______ _______ _______ _____ _____    ______ ____
ROOT
ATOM      1  C   UNL     1     -14.071   5.136 -16.910  0.00  0.00    +0.222 C 
ATOM      2  N   UNL     1     -13.611   4.219 -15.970  0.00  0.00    -0.227 N 
ATOM      3  N   UNL     1     -14.489   4.116 -14.930  0.00  0.00    -0.269 N 
ATOM      4  H   UNL     1     -14.344   3.678 -14.060  0.00  0.00    +0.170 HD
ATOM      5  C   UNL     1     -15.583   4.742 -15.355  0.00  0.00    +0.092 C 
ATOM      6  C   UNL     1     -15.393   5.379 -16.590  0.00  0.00    +0.001 C 
ENDROOT
BRANCH   2   7
ATOM      7  C   UNL     1     -12.504   3.315 -16.001  0.00  0.00    +0.052 A 
ATOM      8  C   UNL     1     -12.747   1.954 -16.253  0.00  0.00    +0.044 A 
ATOM      9  C   UNL     1     -11.682   1.055 -16.311  0.00  0.00    +0.043 A 
ATOM     10 CL   UNL     1     -11.988  -0.614 -16.602  0.00  0.00    -0.083 Cl
ATOM     11  C   UNL     1     -10.373   1.495 -16.136  0.00  0.00    +0.020 A 
ATOM     12  C   UNL     1     -10.123   2.849 -15.917  0.00  0.00    +0.003 A 
ATOM     13  C   UNL     1     -11.183   3.760 -15.860  0.00  0.00    +0.025 A 
ENDBRANCH   2   7
BRANCH   1  17
ATOM     14  C   UNL     1     -11.905   7.145 -18.984  0.00  0.00    +0.019 A 
ATOM     15  C   UNL     1     -12.271   6.123 -19.880  0.00  0.00    +0.019 A 
ATOM     16  C   UNL     1     -13.110   5.270 -19.198  0.00  0.00    +0.088 A 
ATOM     17  N   UNL     1     -13.304   5.738 -17.909  0.00  0.00    -0.330 N 
ATOM     18  C   UNL     1     -12.531   6.878 -17.786  0.00  0.00    +0.088 A 
ENDBRANCH   1  17
BRANCH   6  19
ATOM     19  C   UNL     1     -16.342   6.218 -17.240  0.00  0.00    +0.114 C 
BRANCH  19  20
ATOM     20  N   UNL     1     -17.304   7.088 -17.896  0.00  0.00    -0.326 NA
ATOM     21  H   UNL     1     -17.984   6.520 -18.404  0.00  0.00    +0.119 HD
ATOM     22  H   UNL     1     -17.787   7.650 -17.196  0.00  0.00    +0.119 HD
ENDBRANCH  19  20
ENDBRANCH   6  19
TORSDOF 4
ENDMDL
MODEL 7
REMARK VINA RESULT:      -6.1      3.158      4.655
REMARK  Name = min_compound915.pdb
REMARK  4 active torsions:
REMARK  status: ('A' for Active; 'I' for Inactive)
REMARK    1  A    between atoms: _4  and  _6
REMARK    2  A    between atoms: _7  and  _18
REMARK    3  A    between atoms: _10  and  _11
REMARK    4  A    between atoms: _18  and  _19
REMARK                            x       y       z     vdW  Elec       q    Type
REMARK                         _______ _______ _______ _____ _____    ______ ____
ROOT
ATOM      1  C   UNL     1     -14.668   5.042 -16.072  0.00  0.00    +0.222 C 
ATOM      2  N   UNL     1     -13.451   4.726 -16.667  0.00  0.00    -0.227 N 
ATOM      3  N   UNL     1     -13.099   5.682 -17.575  0.00  0.00    -0.269 N 
ATOM      4  H   UNL     1     -12.385   5.636 -18.253  0.00  0.00    +0.170 HD
ATOM      5  C   UNL     1     -13.935   6.689 -17.340  0.00  0.00    +0.092 C 
ATOM      6  C   UNL     1     -14.922   6.361 -16.400  0.00  0.00    +0.001 C 
ENDROOT
BRANCH   2   7
ATOM      7  C   UNL     1     -12.503   3.695 -16.381  0.00  0.00    +0.052 A 
ATOM      8  C   UNL     1     -12.867   2.357 -16.609  0.00  0.00    +0.044 A 
ATOM      9  C   UNL     1     -11.953   1.333 -16.359  0.00  0.00    +0.043 A 
ATOM     10 CL   UNL     1     -12.411  -0.305 -16.624  0.00  0.00    -0.083 Cl
ATOM     11  C   UNL     1     -10.672   1.625 -15.898  0.00  0.00    +0.020 A 
ATOM     12  C   UNL     1     -10.295   2.952 -15.699  0.00  0.00    +0.003 A 
ATOM     13  C   UNL     1     -11.202   3.986 -15.949  0.00  0.00    +0.025 A 
ENDBRANCH   2   7
BRANCH   1  17
ATOM     14  C   UNL     1     -16.986   2.542 -14.885  0.00  0.00    +0.019 A 
ATOM     15  C   UNL     1     -16.433   2.999 -13.674  0.00  0.00    +0.019 A 
ATOM     16  C   UNL     1     -15.512   3.972 -13.993  0.00  0.00    +0.088 A 
ATOM     17  N   UNL     1     -15.488   4.159 -15.365  0.00  0.00    -0.330 N 
ATOM     18  C   UNL     1     -16.381   3.250 -15.900  0.00  0.00    +0.088 A 
ENDBRANCH   1  17
BRANCH   6  19
ATOM     19  C   UNL     1     -16.019   7.190 -16.030  0.00  0.00    +0.114 C 
BRANCH  19  20
ATOM     20  N   UNL     1     -17.145   8.024 -15.647  0.00  0.00    -0.326 NA
ATOM     21  H   UNL     1     -16.907   9.006 -15.793  0.00  0.00    +0.119 HD
ATOM     22  H   UNL     1     -17.956   7.783 -16.217  0.00  0.00    +0.119 HD
ENDBRANCH  19  20
ENDBRANCH   6  19
TORSDOF 4
ENDMDL
MODEL 8
REMARK VINA RESULT:      -5.9      3.691      6.402
REMARK  Name = min_compound915.pdb
REMARK  4 active torsions:
REMARK  status: ('A' for Active; 'I' for Inactive)
REMARK    1  A    between atoms: _4  and  _6
REMARK    2  A    between atoms: _7  and  _18
REMARK    3  A    between atoms: _10  and  _11
REMARK    4  A    between atoms: _18  and  _19
REMARK                            x       y       z     vdW  Elec       q    Type
REMARK                         _______ _______ _______ _____ _____    ______ ____
ROOT
ATOM      1  C   UNL     1     -12.487   3.982 -16.347  0.00  0.00    +0.222 C 
ATOM      2  N   UNL     1     -12.404   5.173 -17.061  0.00  0.00    -0.227 N 
ATOM      3  N   UNL     1     -11.117   5.626 -17.089  0.00  0.00    -0.269 N 
ATOM      4  H   UNL     1     -10.796   6.513 -17.373  0.00  0.00    +0.170 HD
ATOM      5  C   UNL     1     -10.393   4.602 -16.646  0.00  0.00    +0.092 C 
ATOM      6  C   UNL     1     -11.187   3.540 -16.188  0.00  0.00    +0.001 C 
ENDROOT
BRANCH   2   7
ATOM      7  C   UNL     1     -13.375   5.869 -17.845  0.00  0.00    +0.052 A 
ATOM      8  C   UNL     1     -13.977   7.022 -17.313  0.00  0.00    +0.044 A 
ATOM      9  C   UNL     1     -14.910   7.733 -18.067  0.00  0.00    +0.043 A 
ATOM     10 CL   UNL     1     -15.658   9.134 -17.401  0.00  0.00    -0.083 Cl
ATOM     11  C   UNL     1     -15.243   7.320 -19.354  0.00  0.00    +0.020 A 
ATOM     12  C   UNL     1     -14.626   6.196 -19.900  0.00  0.00    +0.003 A 
ATOM     13  C   UNL     1     -13.686   5.477 -19.154  0.00  0.00    +0.025 A 
ENDBRANCH   2   7
BRANCH   1  17
ATOM     14  C   UNL     1     -15.507   3.079 -14.585  0.00  0.00    +0.019 A 
ATOM     15  C   UNL     1     -15.446   2.066 -15.561  0.00  0.00    +0.019 A 
ATOM     16  C   UNL     1     -14.319   2.302 -16.317  0.00  0.00    +0.088 A 
ATOM     17  N   UNL     1     -13.656   3.416 -15.831  0.00  0.00    -0.330 N 
ATOM     18  C   UNL     1     -14.417   3.899 -14.784  0.00  0.00    +0.088 A 
ENDBRANCH   1  17
BRANCH   6  19
ATOM     19  C   UNL     1     -10.703   2.360 -15.555  0.00  0.00    +0.114 C 
BRANCH  19  20
ATOM     20  N   UNL     1     -10.195   1.158 -14.916  0.00  0.00    -0.326 NA
ATOM     21  H   UNL     1      -9.857   0.511 -15.629  0.00  0.00    +0.119 HD
ATOM     22  H   UNL     1      -9.430   1.403 -14.289  0.00  0.00    +0.119 HD
ENDBRANCH  19  20
ENDBRANCH   6  19
TORSDOF 4
ENDMDL
MODEL 9
REMARK VINA RESULT:      -5.8     12.834     14.589
REMARK  Name = min_compound915.pdb
REMARK  4 active torsions:
REMARK  status: ('A' for Active; 'I' for Inactive)
REMARK    1  A    between atoms: _4  and  _6
REMARK    2  A    between atoms: _7  and  _18
REMARK    3  A    between atoms: _10  and  _11
REMARK    4  A    between atoms: _18  and  _19
REMARK                            x       y       z     vdW  Elec       q    Type
REMARK                         _______ _______ _______ _____ _____    ______ ____
ROOT
ATOM      1  C   UNL     1     -17.781   2.460  -5.368  0.00  0.00    +0.222 C 
ATOM      2  N   UNL     1     -16.981   2.669  -4.249  0.00  0.00    -0.227 N 
ATOM      3  N   UNL     1     -17.620   3.469  -3.346  0.00  0.00    -0.269 N 
ATOM      4  H   UNL     1     -17.236   3.911  -2.554  0.00  0.00    +0.170 HD
ATOM      5  C   UNL     1     -18.878   3.519  -3.777  0.00  0.00    +0.092 C 
ATOM      6  C   UNL     1     -19.046   2.892  -5.020  0.00  0.00    +0.001 C 
ENDROOT
BRANCH   2   7
ATOM      7  C   UNL     1     -15.735   2.087  -3.861  0.00  0.00    +0.052 A 
ATOM      8  C   UNL     1     -15.693   0.717  -3.553  0.00  0.00    +0.044 A 
ATOM      9  C   UNL     1     -14.486   0.119  -3.194  0.00  0.00    +0.043 A 
ATOM     10 CL   UNL     1     -14.445  -1.557  -2.801  0.00  0.00    -0.083 Cl
ATOM     11  C   UNL     1     -13.311   0.865  -3.151  0.00  0.00    +0.020 A 
ATOM     12  C   UNL     1     -13.340   2.218  -3.485  0.00  0.00    +0.003 A 
ATOM     13  C   UNL     1     -14.545   2.827  -3.850  0.00  0.00    +0.025 A 
ENDBRANCH   2   7
BRANCH   1  17
ATOM     14  C   UNL     1     -16.801   0.610  -8.310  0.00  0.00    +0.019 A 
ATOM     15  C   UNL     1     -16.642   1.936  -8.755  0.00  0.00    +0.019 A 
ATOM     16  C   UNL     1     -16.994   2.758  -7.707  0.00  0.00    +0.088 A 
ATOM     17  N   UNL     1     -17.345   1.990  -6.610  0.00  0.00    -0.330 N 
ATOM     18  C   UNL     1     -17.248   0.670  -7.008  0.00  0.00    +0.088 A 
ENDBRANCH   1  17
BRANCH   6  19
ATOM     19  C   UNL     1     -20.248   2.883  -5.783  0.00  0.00    +0.114 C 
BRANCH  19  20
ATOM     20  N   UNL     1     -21.477   2.858  -6.559  0.00  0.00    -0.326 NA
ATOM     21  H   UNL     1     -22.227   2.458  -5.995  0.00  0.00    +0.119 HD
ATOM     22  H   UNL     1     -21.726   3.809  -6.831  0.00  0.00    +0.119 HD
ENDBRANCH  19  20
ENDBRANCH   6  19
TORSDOF 4
ENDMDL
