MODEL 1
REMARK VINA RESULT:      -6.9      0.000      0.000
REMARK  Name = min_compound978.pdb
REMARK  4 active torsions:
REMARK  status: ('A' for Active; 'I' for Inactive)
REMARK    1  A    between atoms: _13  and  _15
REMARK    2  A    between atoms: _15  and  _16
REMARK    3  A    between atoms: _16  and  _17
REMARK    4  A    between atoms: _17  and  _19
REMARK                            x       y       z     vdW  Elec       q    Type
REMARK                         _______ _______ _______ _____ _____    ______ ____
ROOT
ATOM      1  C   UNL     1     -10.013   1.152 -16.259  0.00  0.00    +0.017 A 
ATOM      2  C   UNL     1     -10.992   2.157 -16.328  0.00  0.00    +0.034 A 
ATOM      3  C   UNL     1     -12.362   1.835 -16.454  0.00  0.00    +0.048 A 
ATOM      4  N   UNL     1     -13.351   2.847 -16.481  0.00  0.00    -0.298 N 
ATOM      5  C   UNL     1     -13.094   4.158 -16.987  0.00  0.00    +0.048 A 
ATOM      6  C   UNL     1     -14.108   4.949 -17.572  0.00  0.00    +0.024 A 
ATOM      7  C   UNL     1     -13.851   6.224 -18.088  0.00  0.00    +0.002 A 
ATOM      8  C   UNL     1     -12.563   6.738 -18.057  0.00  0.00    +0.001 A 
ATOM      9  C   UNL     1     -11.536   5.978 -17.506  0.00  0.00    +0.017 A 
ATOM     10  C   UNL     1     -11.792   4.702 -16.972  0.00  0.00    +0.034 A 
ATOM     11  C   UNL     1     -12.675   0.471 -16.603  0.00  0.00    +0.024 A 
ATOM     12  C   UNL     1     -11.700  -0.530 -16.526  0.00  0.00    +0.002 A 
ATOM     13  S   UNL     1     -10.415   3.843 -16.234  0.00  0.00    -0.086 S 
ATOM     14  C   UNL     1     -10.368  -0.190 -16.343  0.00  0.00    +0.001 A 
ENDROOT
BRANCH   4  15
ATOM     15  C   UNL     1     -14.756   2.554 -16.099  0.00  0.00    +0.122 C 
BRANCH  15  16
ATOM     16  C   UNL     1     -15.210   3.127 -14.754  0.00  0.00    +0.139 C 
BRANCH  16  17
ATOM     17  C   UNL     1     -16.606   2.656 -14.446  0.00  0.00    +0.306 C 
ATOM     18  O   UNL     1     -17.118   2.519 -13.352  0.00  0.00    -0.251 OA
BRANCH  17  19
ATOM     19  O   UNL     1     -17.307   2.378 -15.565  0.00  0.00    -0.481 OA
ATOM     20  H   UNL     1     -17.250   1.402 -15.648  0.00  0.00    +0.295 HD
ENDBRANCH  17  19
ENDBRANCH  16  17
ENDBRANCH  15  16
ENDBRANCH   4  15
TORSDOF 4
ENDMDL
MODEL 2
REMARK VINA RESULT:      -6.2     11.674     13.784
REMARK  Name = min_compound978.pdb
REMARK  4 active torsions:
REMARK  status: ('A' for Active; 'I' for Inactive)
REMARK    1  A    between atoms: _13  and  _15
REMARK    2  A    between atoms: _15  and  _16
REMARK    3  A    between atoms: _16  and  _17
REMARK    4  A    between atoms: _17  and  _19
REMARK                            x       y       z     vdW  Elec       q    Type
REMARK                         _______ _______ _______ _____ _____    ______ ____
ROOT
ATOM      1  C   UNL     1     -16.654  -2.338  -1.663  0.00  0.00    +0.017 A 
ATOM      2  C   UNL     1     -16.509  -1.206  -2.483  0.00  0.00    +0.034 A 
ATOM      3  C   UNL     1     -15.236  -0.787  -2.930  0.00  0.00    +0.048 A 
ATOM      4  N   UNL     1     -15.095   0.328  -3.791  0.00  0.00    -0.298 N 
ATOM      5  C   UNL     1     -16.012   1.424  -3.785  0.00  0.00    +0.048 A 
ATOM      6  C   UNL     1     -15.619   2.734  -4.137  0.00  0.00    +0.024 A 
ATOM      7  C   UNL     1     -16.512   3.810  -4.109  0.00  0.00    +0.002 A 
ATOM      8  C   UNL     1     -17.823   3.614  -3.702  0.00  0.00    +0.001 A 
ATOM      9  C   UNL     1     -18.240   2.339  -3.330  0.00  0.00    +0.017 A 
ATOM     10  C   UNL     1     -17.350   1.250  -3.372  0.00  0.00    +0.034 A 
ATOM     11  C   UNL     1     -14.129  -1.500  -2.435  0.00  0.00    +0.024 A 
ATOM     12  C   UNL     1     -14.275  -2.632  -1.624  0.00  0.00    +0.002 A 
ATOM     13  S   UNL     1     -18.007  -0.348  -2.934  0.00  0.00    -0.086 S 
ATOM     14  C   UNL     1     -15.540  -3.058  -1.246  0.00  0.00    +0.001 A 
ENDROOT
BRANCH   4  15
ATOM     15  C   UNL     1     -13.902   0.475  -4.663  0.00  0.00    +0.122 C 
BRANCH  15  16
ATOM     16  C   UNL     1     -14.160   0.350  -6.166  0.00  0.00    +0.139 C 
BRANCH  16  17
ATOM     17  C   UNL     1     -15.062  -0.827  -6.431  0.00  0.00    +0.306 C 
ATOM     18  O   UNL     1     -16.197  -0.808  -6.867  0.00  0.00    -0.251 OA
BRANCH  17  19
ATOM     19  O   UNL     1     -14.469  -1.999  -6.127  0.00  0.00    -0.481 OA
ATOM     20  H   UNL     1     -13.708  -2.051  -6.744  0.00  0.00    +0.295 HD
ENDBRANCH  17  19
ENDBRANCH  16  17
ENDBRANCH  15  16
ENDBRANCH   4  15
TORSDOF 4
ENDMDL
MODEL 3
REMARK VINA RESULT:      -6.2      3.283      5.763
REMARK  Name = min_compound978.pdb
REMARK  4 active torsions:
REMARK  status: ('A' for Active; 'I' for Inactive)
REMARK    1  A    between atoms: _13  and  _15
REMARK    2  A    between atoms: _15  and  _16
REMARK    3  A    between atoms: _16  and  _17
REMARK    4  A    between atoms: _17  and  _19
REMARK                            x       y       z     vdW  Elec       q    Type
REMARK                         _______ _______ _______ _____ _____    ______ ____
ROOT
ATOM      1  C   UNL     1     -11.957   6.184 -17.368  0.00  0.00    +0.017 A 
ATOM      2  C   UNL     1     -11.828   4.799 -17.569  0.00  0.00    +0.034 A 
ATOM      3  C   UNL     1     -12.842   4.058 -18.214  0.00  0.00    +0.048 A 
ATOM      4  N   UNL     1     -12.693   2.671 -18.454  0.00  0.00    -0.298 N 
ATOM      5  C   UNL     1     -11.913   1.825 -17.607  0.00  0.00    +0.048 A 
ATOM      6  C   UNL     1     -12.206   0.453 -17.441  0.00  0.00    +0.024 A 
ATOM      7  C   UNL     1     -11.455  -0.369 -16.593  0.00  0.00    +0.002 A 
ATOM      8  C   UNL     1     -10.402   0.162 -15.865  0.00  0.00    +0.001 A 
ATOM      9  C   UNL     1     -10.097   1.514 -15.990  0.00  0.00    +0.017 A 
ATOM     10  C   UNL     1     -10.838   2.342 -16.852  0.00  0.00    +0.034 A 
ATOM     11  C   UNL     1     -14.015   4.758 -18.552  0.00  0.00    +0.024 A 
ATOM     12  C   UNL     1     -14.139   6.139 -18.359  0.00  0.00    +0.002 A 
ATOM     13  S   UNL     1     -10.322   4.044 -16.982  0.00  0.00    -0.086 S 
ATOM     14  C   UNL     1     -13.104   6.855 -17.776  0.00  0.00    +0.001 A 
ENDROOT
BRANCH   4  15
ATOM     15  C   UNL     1     -13.452   1.995 -19.537  0.00  0.00    +0.122 C 
BRANCH  15  16
ATOM     16  C   UNL     1     -13.513   2.744 -20.870  0.00  0.00    +0.139 C 
BRANCH  16  17
ATOM     17  C   UNL     1     -13.904   1.794 -21.970  0.00  0.00    +0.306 C 
ATOM     18  O   UNL     1     -15.023   1.411 -22.257  0.00  0.00    -0.251 OA
BRANCH  17  19
ATOM     19  O   UNL     1     -12.837   1.365 -22.674  0.00  0.00    -0.481 OA
ATOM     20  H   UNL     1     -12.066   1.643 -22.136  0.00  0.00    +0.295 HD
ENDBRANCH  17  19
ENDBRANCH  16  17
ENDBRANCH  15  16
ENDBRANCH   4  15
TORSDOF 4
ENDMDL
MODEL 4
REMARK VINA RESULT:      -6.2      3.180      3.620
REMARK  Name = min_compound978.pdb
REMARK  4 active torsions:
REMARK  status: ('A' for Active; 'I' for Inactive)
REMARK    1  A    between atoms: _13  and  _15
REMARK    2  A    between atoms: _15  and  _16
REMARK    3  A    between atoms: _16  and  _17
REMARK    4  A    between atoms: _17  and  _19
REMARK                            x       y       z     vdW  Elec       q    Type
REMARK                         _______ _______ _______ _____ _____    ______ ____
ROOT
ATOM      1  C   UNL     1     -10.341   1.486 -15.620  0.00  0.00    +0.017 A 
ATOM      2  C   UNL     1     -11.128   2.372 -16.376  0.00  0.00    +0.034 A 
ATOM      3  C   UNL     1     -11.819   1.934 -17.527  0.00  0.00    +0.048 A 
ATOM      4  N   UNL     1     -12.646   2.817 -18.263  0.00  0.00    -0.298 N 
ATOM      5  C   UNL     1     -12.402   4.223 -18.328  0.00  0.00    +0.048 A 
ATOM      6  C   UNL     1     -12.777   4.999 -19.446  0.00  0.00    +0.024 A 
ATOM      7  C   UNL     1     -12.517   6.372 -19.518  0.00  0.00    +0.002 A 
ATOM      8  C   UNL     1     -11.848   7.007 -18.482  0.00  0.00    +0.001 A 
ATOM      9  C   UNL     1     -11.446   6.268 -17.374  0.00  0.00    +0.017 A 
ATOM     10  C   UNL     1     -11.719   4.891 -17.289  0.00  0.00    +0.034 A 
ATOM     11  C   UNL     1     -11.599   0.602 -17.924  0.00  0.00    +0.024 A 
ATOM     12  C   UNL     1     -10.821  -0.281 -17.167  0.00  0.00    +0.002 A 
ATOM     13  S   UNL     1     -11.215   4.057 -15.796  0.00  0.00    -0.086 S 
ATOM     14  C   UNL     1     -10.200   0.158 -16.007  0.00  0.00    +0.001 A 
ENDROOT
BRANCH   4  15
ATOM     15  C   UNL     1     -13.746   2.301 -19.118  0.00  0.00    +0.122 C 
BRANCH  15  16
ATOM     16  C   UNL     1     -13.361   1.962 -20.560  0.00  0.00    +0.139 C 
BRANCH  16  17
ATOM     17  C   UNL     1     -14.570   2.081 -21.450  0.00  0.00    +0.306 C 
ATOM     18  O   UNL     1     -15.067   1.216 -22.145  0.00  0.00    -0.251 OA
BRANCH  17  19
ATOM     19  O   UNL     1     -15.106   3.318 -21.414  0.00  0.00    -0.481 OA
ATOM     20  H   UNL     1     -14.927   3.632 -20.502  0.00  0.00    +0.295 HD
ENDBRANCH  17  19
ENDBRANCH  16  17
ENDBRANCH  15  16
ENDBRANCH   4  15
TORSDOF 4
ENDMDL
MODEL 5
REMARK VINA RESULT:      -6.1      3.005      5.542
REMARK  Name = min_compound978.pdb
REMARK  4 active torsions:
REMARK  status: ('A' for Active; 'I' for Inactive)
REMARK    1  A    between atoms: _13  and  _15
REMARK    2  A    between atoms: _15  and  _16
REMARK    3  A    between atoms: _16  and  _17
REMARK    4  A    between atoms: _17  and  _19
REMARK                            x       y       z     vdW  Elec       q    Type
REMARK                         _______ _______ _______ _____ _____    ______ ____
ROOT
ATOM      1  C   UNL     1     -13.432   7.205 -17.739  0.00  0.00    +0.017 A 
ATOM      2  C   UNL     1     -13.838   6.109 -16.958  0.00  0.00    +0.034 A 
ATOM      3  C   UNL     1     -13.281   4.827 -17.154  0.00  0.00    +0.048 A 
ATOM      4  N   UNL     1     -13.659   3.734 -16.339  0.00  0.00    -0.298 N 
ATOM      5  C   UNL     1     -14.952   3.634 -15.739  0.00  0.00    +0.048 A 
ATOM      6  C   UNL     1     -15.556   2.388 -15.459  0.00  0.00    +0.024 A 
ATOM      7  C   UNL     1     -16.832   2.292 -14.893  0.00  0.00    +0.002 A 
ATOM      8  C   UNL     1     -17.556   3.441 -14.614  0.00  0.00    +0.001 A 
ATOM      9  C   UNL     1     -16.999   4.685 -14.895  0.00  0.00    +0.017 A 
ATOM     10  C   UNL     1     -15.710   4.788 -15.449  0.00  0.00    +0.034 A 
ATOM     11  C   UNL     1     -12.380   4.689 -18.227  0.00  0.00    +0.024 A 
ATOM     12  C   UNL     1     -11.971   5.782 -18.999  0.00  0.00    +0.002 A 
ATOM     13  S   UNL     1     -15.071   6.432 -15.710  0.00  0.00    -0.086 S 
ATOM     14  C   UNL     1     -12.489   7.044 -18.748  0.00  0.00    +0.001 A 
ENDROOT
BRANCH   4  15
ATOM     15  C   UNL     1     -12.764   2.560 -16.168  0.00  0.00    +0.122 C 
BRANCH  15  16
ATOM     16  C   UNL     1     -11.425   2.843 -15.484  0.00  0.00    +0.139 C 
BRANCH  16  17
ATOM     17  C   UNL     1     -10.382   1.884 -15.993  0.00  0.00    +0.306 C 
ATOM     18  O   UNL     1      -9.939   1.802 -17.123  0.00  0.00    -0.251 OA
BRANCH  17  19
ATOM     19  O   UNL     1      -9.935   1.058 -15.025  0.00  0.00    -0.481 OA
ATOM     20  H   UNL     1      -9.124   0.657 -15.406  0.00  0.00    +0.295 HD
ENDBRANCH  17  19
ENDBRANCH  16  17
ENDBRANCH  15  16
ENDBRANCH   4  15
TORSDOF 4
ENDMDL
MODEL 6
REMARK VINA RESULT:      -6.1     11.386     14.003
REMARK  Name = min_compound978.pdb
REMARK  4 active torsions:
REMARK  status: ('A' for Active; 'I' for Inactive)
REMARK    1  A    between atoms: _13  and  _15
REMARK    2  A    between atoms: _15  and  _16
REMARK    3  A    between atoms: _16  and  _17
REMARK    4  A    between atoms: _17  and  _19
REMARK                            x       y       z     vdW  Elec       q    Type
REMARK                         _______ _______ _______ _____ _____    ______ ____
ROOT
ATOM      1  C   UNL     1     -13.496   0.700  -3.096  0.00  0.00    +0.017 A 
ATOM      2  C   UNL     1     -14.634  -0.072  -3.387  0.00  0.00    +0.034 A 
ATOM      3  C   UNL     1     -15.770   0.504  -3.998  0.00  0.00    +0.048 A 
ATOM      4  N   UNL     1     -16.898  -0.283  -4.329  0.00  0.00    -0.298 N 
ATOM      5  C   UNL     1     -17.262  -1.452  -3.595  0.00  0.00    +0.048 A 
ATOM      6  C   UNL     1     -18.602  -1.886  -3.489  0.00  0.00    +0.024 A 
ATOM      7  C   UNL     1     -18.959  -3.019  -2.750  0.00  0.00    +0.002 A 
ATOM      8  C   UNL     1     -17.988  -3.740  -2.071  0.00  0.00    +0.001 A 
ATOM      9  C   UNL     1     -16.660  -3.330  -2.138  0.00  0.00    +0.017 A 
ATOM     10  C   UNL     1     -16.293  -2.201  -2.893  0.00  0.00    +0.034 A 
ATOM     11  C   UNL     1     -15.734   1.895  -4.206  0.00  0.00    +0.024 A 
ATOM     12  C   UNL     1     -14.598   2.661  -3.923  0.00  0.00    +0.002 A 
ATOM     13  S   UNL     1     -14.557  -1.802  -2.960  0.00  0.00    -0.086 S 
ATOM     14  C   UNL     1     -13.473   2.061  -3.376  0.00  0.00    +0.001 A 
ENDROOT
BRANCH   4  15
ATOM     15  C   UNL     1     -17.845   0.146  -5.391  0.00  0.00    +0.122 C 
BRANCH  15  16
ATOM     16  C   UNL     1     -17.687  -0.556  -6.742  0.00  0.00    +0.139 C 
BRANCH  16  17
ATOM     17  C   UNL     1     -16.230  -0.618  -7.116  0.00  0.00    +0.306 C 
ATOM     18  O   UNL     1     -15.537   0.282  -7.554  0.00  0.00    -0.251 OA
BRANCH  17  19
ATOM     19  O   UNL     1     -15.704  -1.842  -6.910  0.00  0.00    -0.481 OA
ATOM     20  H   UNL     1     -15.132  -1.993  -7.692  0.00  0.00    +0.295 HD
ENDBRANCH  17  19
ENDBRANCH  16  17
ENDBRANCH  15  16
ENDBRANCH   4  15
TORSDOF 4
ENDMDL
MODEL 7
REMARK VINA RESULT:      -6.0     13.269     14.914
REMARK  Name = min_compound978.pdb
REMARK  4 active torsions:
REMARK  status: ('A' for Active; 'I' for Inactive)
REMARK    1  A    between atoms: _13  and  _15
REMARK    2  A    between atoms: _15  and  _16
REMARK    3  A    between atoms: _16  and  _17
REMARK    4  A    between atoms: _17  and  _19
REMARK                            x       y       z     vdW  Elec       q    Type
REMARK                         _______ _______ _______ _____ _____    ______ ____
ROOT
ATOM      1  C   UNL     1     -19.259  -1.460  -3.940  0.00  0.00    +0.017 A 
ATOM      2  C   UNL     1     -17.891  -1.140  -3.974  0.00  0.00    +0.034 A 
ATOM      3  C   UNL     1     -16.942  -1.918  -3.276  0.00  0.00    +0.048 A 
ATOM      4  N   UNL     1     -15.560  -1.620  -3.346  0.00  0.00    -0.298 N 
ATOM      5  C   UNL     1     -15.069  -0.294  -3.552  0.00  0.00    +0.048 A 
ATOM      6  C   UNL     1     -13.820   0.131  -3.050  0.00  0.00    +0.024 A 
ATOM      7  C   UNL     1     -13.351   1.436  -3.232  0.00  0.00    +0.002 A 
ATOM      8  C   UNL     1     -14.131   2.366  -3.903  0.00  0.00    +0.001 A 
ATOM      9  C   UNL     1     -15.376   1.987  -4.394  0.00  0.00    +0.017 A 
ATOM     10  C   UNL     1     -15.846   0.672  -4.227  0.00  0.00    +0.034 A 
ATOM     11  C   UNL     1     -17.448  -2.959  -2.476  0.00  0.00    +0.024 A 
ATOM     12  C   UNL     1     -18.809  -3.282  -2.448  0.00  0.00    +0.002 A 
ATOM     13  S   UNL     1     -17.427   0.279  -4.951  0.00  0.00    -0.086 S 
ATOM     14  C   UNL     1     -19.715  -2.538  -3.190  0.00  0.00    +0.001 A 
ENDROOT
BRANCH   4  15
ATOM     15  C   UNL     1     -14.537  -2.664  -3.077  0.00  0.00    +0.122 C 
BRANCH  15  16
ATOM     16  C   UNL     1     -14.165  -2.865  -1.606  0.00  0.00    +0.139 C 
BRANCH  16  17
ATOM     17  C   UNL     1     -13.242  -4.046  -1.472  0.00  0.00    +0.306 C 
ATOM     18  O   UNL     1     -13.440  -5.188  -1.843  0.00  0.00    -0.251 OA
BRANCH  17  19
ATOM     19  O   UNL     1     -12.084  -3.719  -0.864  0.00  0.00    -0.481 OA
ATOM     20  H   UNL     1     -11.407  -4.255  -1.332  0.00  0.00    +0.295 HD
ENDBRANCH  17  19
ENDBRANCH  16  17
ENDBRANCH  15  16
ENDBRANCH   4  15
TORSDOF 4
ENDMDL
MODEL 8
REMARK VINA RESULT:      -6.0      3.459      4.927
REMARK  Name = min_compound978.pdb
REMARK  4 active torsions:
REMARK  status: ('A' for Active; 'I' for Inactive)
REMARK    1  A    between atoms: _13  and  _15
REMARK    2  A    between atoms: _15  and  _16
REMARK    3  A    between atoms: _16  and  _17
REMARK    4  A    between atoms: _17  and  _19
REMARK                            x       y       z     vdW  Elec       q    Type
REMARK                         _______ _______ _______ _____ _____    ______ ____
ROOT
ATOM      1  C   UNL     1     -13.692   4.419 -21.164  0.00  0.00    +0.017 A 
ATOM      2  C   UNL     1     -13.560   4.179 -19.785  0.00  0.00    +0.034 A 
ATOM      3  C   UNL     1     -13.294   2.883 -19.292  0.00  0.00    +0.048 A 
ATOM      4  N   UNL     1     -13.119   2.650 -17.907  0.00  0.00    -0.298 N 
ATOM      5  C   UNL     1     -13.756   3.447 -16.907  0.00  0.00    +0.048 A 
ATOM      6  C   UNL     1     -14.097   2.930 -15.638  0.00  0.00    +0.024 A 
ATOM      7  C   UNL     1     -14.742   3.705 -14.669  0.00  0.00    +0.002 A 
ATOM      8  C   UNL     1     -15.091   5.018 -14.949  0.00  0.00    +0.001 A 
ATOM      9  C   UNL     1     -14.788   5.554 -16.196  0.00  0.00    +0.017 A 
ATOM     10  C   UNL     1     -14.125   4.784 -17.169  0.00  0.00    +0.034 A 
ATOM     11  C   UNL     1     -13.266   1.843 -20.239  0.00  0.00    +0.024 A 
ATOM     12  C   UNL     1     -13.390   2.083 -21.612  0.00  0.00    +0.002 A 
ATOM     13  S   UNL     1     -13.730   5.592 -18.709  0.00  0.00    -0.086 S 
ATOM     14  C   UNL     1     -13.593   3.375 -22.076  0.00  0.00    +0.001 A 
ENDROOT
BRANCH   4  15
ATOM     15  C   UNL     1     -12.356   1.472 -17.419  0.00  0.00    +0.122 C 
BRANCH  15  16
ATOM     16  C   UNL     1     -10.837   1.648 -17.351  0.00  0.00    +0.139 C 
BRANCH  16  17
ATOM     17  C   UNL     1     -10.364   1.439 -15.937  0.00  0.00    +0.306 C 
ATOM     18  O   UNL     1      -9.794   0.466 -15.482  0.00  0.00    -0.251 OA
BRANCH  17  19
ATOM     19  O   UNL     1     -10.637   2.498 -15.148  0.00  0.00    -0.481 OA
ATOM     20  H   UNL     1     -11.530   2.306 -14.788  0.00  0.00    +0.295 HD
ENDBRANCH  17  19
ENDBRANCH  16  17
ENDBRANCH  15  16
ENDBRANCH   4  15
TORSDOF 4
ENDMDL
MODEL 9
REMARK VINA RESULT:      -5.8      2.847      4.828
REMARK  Name = min_compound978.pdb
REMARK  4 active torsions:
REMARK  status: ('A' for Active; 'I' for Inactive)
REMARK    1  A    between atoms: _13  and  _15
REMARK    2  A    between atoms: _15  and  _16
REMARK    3  A    between atoms: _16  and  _17
REMARK    4  A    between atoms: _17  and  _19
REMARK                            x       y       z     vdW  Elec       q    Type
REMARK                         _______ _______ _______ _____ _____    ______ ____
ROOT
ATOM      1  C   UNL     1     -17.461   3.732 -16.556  0.00  0.00    +0.017 A 
ATOM      2  C   UNL     1     -16.116   3.945 -16.901  0.00  0.00    +0.034 A 
ATOM      3  C   UNL     1     -15.068   3.428 -16.108  0.00  0.00    +0.048 A 
ATOM      4  N   UNL     1     -13.714   3.607 -16.480  0.00  0.00    -0.298 N 
ATOM      5  C   UNL     1     -13.266   4.739 -17.228  0.00  0.00    +0.048 A 
ATOM      6  C   UNL     1     -11.957   5.252 -17.103  0.00  0.00    +0.024 A 
ATOM      7  C   UNL     1     -11.526   6.374 -17.819  0.00  0.00    +0.002 A 
ATOM      8  C   UNL     1     -12.404   7.034 -18.666  0.00  0.00    +0.001 A 
ATOM      9  C   UNL     1     -13.708   6.568 -18.799  0.00  0.00    +0.017 A 
ATOM     10  C   UNL     1     -14.141   5.430 -18.094  0.00  0.00    +0.034 A 
ATOM     11  C   UNL     1     -15.442   2.778 -14.917  0.00  0.00    +0.024 A 
ATOM     12  C   UNL     1     -16.782   2.559 -14.578  0.00  0.00    +0.002 A 
ATOM     13  S   UNL     1     -15.812   4.883 -18.387  0.00  0.00    -0.086 S 
ATOM     14  C   UNL     1     -17.793   3.028 -15.404  0.00  0.00    +0.001 A 
ENDROOT
BRANCH   4  15
ATOM     15  C   UNL     1     -12.658   2.681 -15.995  0.00  0.00    +0.122 C 
BRANCH  15  16
ATOM     16  C   UNL     1     -12.624   1.306 -16.665  0.00  0.00    +0.139 C 
BRANCH  16  17
ATOM     17  C   UNL     1     -11.692   1.339 -17.847  0.00  0.00    +0.306 C 
ATOM     18  O   UNL     1     -10.483   1.466 -17.835  0.00  0.00    -0.251 OA
BRANCH  17  19
ATOM     19  O   UNL     1     -12.351   1.204 -19.016  0.00  0.00    -0.481 OA
ATOM     20  H   UNL     1     -11.649   1.280 -19.698  0.00  0.00    +0.295 HD
ENDBRANCH  17  19
ENDBRANCH  16  17
ENDBRANCH  15  16
ENDBRANCH   4  15
TORSDOF 4
ENDMDL
