MODEL 1
REMARK VINA RESULT:      -5.6      0.000      0.000
REMARK  Name = min_compound96.pdb
REMARK  7 active torsions:
REMARK  status: ('A' for Active; 'I' for Inactive)
REMARK    1  A    between atoms: _2  and  _5
REMARK    2  A    between atoms: _3  and  _8
REMARK    3  A    between atoms: _5  and  _7
REMARK    4  A    between atoms: _10  and  _11
REMARK    5  A    between atoms: _11  and  _12
REMARK    6  A    between atoms: _12  and  _13
REMARK    7  A    between atoms: _12  and  _14
REMARK                            x       y       z     vdW  Elec       q    Type
REMARK                         _______ _______ _______ _____ _____    ______ ____
ROOT
ATOM      1  C   UNL     1     -12.579   1.364 -17.076  0.00  0.00    +0.237 C 
ATOM      2  N   UNL     1     -12.519   2.169 -15.970  0.00  0.00    -0.312 N 
ATOM      3  H   UNL     1     -12.250   1.782 -15.074  0.00  0.00    +0.149 HD
ATOM      4  O   UNL     1     -12.784   1.754 -18.219  0.00  0.00    -0.271 OA
ENDROOT
BRANCH   1   6
ATOM      5  C   UNL     1     -11.148  -0.558 -16.362  0.00  0.00    +0.096 C 
ATOM      6  C   UNL     1     -12.315  -0.058 -16.797  0.00  0.00    +0.074 C 
BRANCH   5   7
ATOM      7  C   UNL     1      -9.857   0.054 -15.982  0.00  0.00    +0.330 C 
ATOM      8  O   UNL     1      -8.851  -0.212 -16.629  0.00  0.00    -0.246 OA
BRANCH   7   9
ATOM      9  O   UNL     1      -9.832   0.902 -14.949  0.00  0.00    -0.478 OA
ATOM     10  H   UNL     1     -10.691   1.048 -14.486  0.00  0.00    +0.295 HD
ENDBRANCH   7   9
ENDBRANCH   5   7
ENDBRANCH   1   6
BRANCH   2  11
ATOM     11  C   UNL     1     -12.537   3.617 -16.103  0.00  0.00    +0.107 C 
BRANCH  11  12
ATOM     12  C   UNL     1     -11.256   4.196 -16.747  0.00  0.00    -0.000 C 
ATOM     13  C   UNL     1     -10.120   4.245 -15.770  0.00  0.00    +0.009 C 
ATOM     14  C   UNL     1     -11.543   5.549 -17.416  0.00  0.00    +0.009 C 
ENDBRANCH  11  12
ENDBRANCH   2  11
TORSDOF 5
ENDMDL
MODEL 2
REMARK VINA RESULT:      -5.0      2.166      4.904
REMARK  Name = min_compound96.pdb
REMARK  7 active torsions:
REMARK  status: ('A' for Active; 'I' for Inactive)
REMARK    1  A    between atoms: _2  and  _5
REMARK    2  A    between atoms: _3  and  _8
REMARK    3  A    between atoms: _5  and  _7
REMARK    4  A    between atoms: _10  and  _11
REMARK    5  A    between atoms: _11  and  _12
REMARK    6  A    between atoms: _12  and  _13
REMARK    7  A    between atoms: _12  and  _14
REMARK                            x       y       z     vdW  Elec       q    Type
REMARK                         _______ _______ _______ _____ _____    ______ ____
ROOT
ATOM      1  C   UNL     1     -10.888   2.932 -15.678  0.00  0.00    +0.237 C 
ATOM      2  N   UNL     1      -9.966   1.920 -15.727  0.00  0.00    -0.312 N 
ATOM      3  H   UNL     1      -8.998   2.125 -15.934  0.00  0.00    +0.149 HD
ATOM      4  O   UNL     1     -12.055   2.804 -15.328  0.00  0.00    -0.271 OA
ENDROOT
BRANCH   1   6
ATOM      5  C   UNL     1     -10.913   5.119 -16.891  0.00  0.00    +0.096 C 
ATOM      6  C   UNL     1     -10.345   4.254 -16.036  0.00  0.00    +0.074 C 
BRANCH   5   7
ATOM      7  C   UNL     1     -12.175   5.109 -17.660  0.00  0.00    +0.330 C 
ATOM      8  O   UNL     1     -12.137   5.168 -18.883  0.00  0.00    -0.246 OA
BRANCH   7   9
ATOM      9  O   UNL     1     -13.329   5.014 -16.990  0.00  0.00    -0.478 OA
ATOM     10  H   UNL     1     -14.057   4.528 -17.446  0.00  0.00    +0.295 HD
ENDBRANCH   7   9
ENDBRANCH   5   7
ENDBRANCH   1   6
BRANCH   2  11
ATOM     11  C   UNL     1     -10.281   0.604 -15.195  0.00  0.00    +0.107 C 
BRANCH  11  12
ATOM     12  C   UNL     1     -10.588  -0.448 -16.286  0.00  0.00    -0.000 C 
ATOM     13  C   UNL     1      -9.624  -0.355 -17.431  0.00  0.00    +0.009 C 
ATOM     14  C   UNL     1     -12.060  -0.373 -16.721  0.00  0.00    +0.009 C 
ENDBRANCH  11  12
ENDBRANCH   2  11
TORSDOF 5
ENDMDL
MODEL 3
REMARK VINA RESULT:      -5.0      1.904      2.754
REMARK  Name = min_compound96.pdb
REMARK  7 active torsions:
REMARK  status: ('A' for Active; 'I' for Inactive)
REMARK    1  A    between atoms: _2  and  _5
REMARK    2  A    between atoms: _3  and  _8
REMARK    3  A    between atoms: _5  and  _7
REMARK    4  A    between atoms: _10  and  _11
REMARK    5  A    between atoms: _11  and  _12
REMARK    6  A    between atoms: _12  and  _13
REMARK    7  A    between atoms: _12  and  _14
REMARK                            x       y       z     vdW  Elec       q    Type
REMARK                         _______ _______ _______ _____ _____    ______ ____
ROOT
ATOM      1  C   UNL     1     -12.521   1.620 -16.720  0.00  0.00    +0.237 C 
ATOM      2  N   UNL     1     -13.681   2.014 -16.107  0.00  0.00    -0.312 N 
ATOM      3  H   UNL     1     -14.309   1.324 -15.717  0.00  0.00    +0.149 HD
ATOM      4  O   UNL     1     -11.646   2.377 -17.123  0.00  0.00    -0.271 OA
ENDROOT
BRANCH   1   6
ATOM      5  C   UNL     1     -11.268  -0.528 -16.459  0.00  0.00    +0.096 C 
ATOM      6  C   UNL     1     -12.364   0.159 -16.819  0.00  0.00    +0.074 C 
BRANCH   5   7
ATOM      7  C   UNL     1      -9.982  -0.142 -15.843  0.00  0.00    +0.330 C 
ATOM      8  O   UNL     1      -8.971  -0.781 -16.109  0.00  0.00    -0.246 OA
BRANCH   7   9
ATOM      9  O   UNL     1      -9.958   0.915 -15.025  0.00  0.00    -0.478 OA
ATOM     10  H   UNL     1      -9.501   1.720 -15.368  0.00  0.00    +0.295 HD
ENDBRANCH   7   9
ENDBRANCH   5   7
ENDBRANCH   1   6
BRANCH   2  11
ATOM     11  C   UNL     1     -13.887   3.405 -15.735  0.00  0.00    +0.107 C 
BRANCH  11  12
ATOM     12  C   UNL     1     -15.206   3.651 -14.965  0.00  0.00    -0.000 C 
ATOM     13  C   UNL     1     -14.953   4.216 -13.600  0.00  0.00    +0.009 C 
ATOM     14  C   UNL     1     -16.074   2.383 -14.948  0.00  0.00    +0.009 C 
ENDBRANCH  11  12
ENDBRANCH   2  11
TORSDOF 5
ENDMDL
MODEL 4
REMARK VINA RESULT:      -4.9     14.326     15.026
REMARK  Name = min_compound96.pdb
REMARK  7 active torsions:
REMARK  status: ('A' for Active; 'I' for Inactive)
REMARK    1  A    between atoms: _2  and  _5
REMARK    2  A    between atoms: _3  and  _8
REMARK    3  A    between atoms: _5  and  _7
REMARK    4  A    between atoms: _10  and  _11
REMARK    5  A    between atoms: _11  and  _12
REMARK    6  A    between atoms: _12  and  _13
REMARK    7  A    between atoms: _12  and  _14
REMARK                            x       y       z     vdW  Elec       q    Type
REMARK                         _______ _______ _______ _____ _____    ______ ____
ROOT
ATOM      1  C   UNL     1     -14.556  -2.399  -2.147  0.00  0.00    +0.237 C 
ATOM      2  N   UNL     1     -14.284  -1.551  -3.188  0.00  0.00    -0.312 N 
ATOM      3  H   UNL     1     -14.071  -1.924  -4.104  0.00  0.00    +0.149 HD
ATOM      4  O   UNL     1     -14.932  -2.049  -1.036  0.00  0.00    -0.271 OA
ENDROOT
BRANCH   1   6
ATOM      5  C   UNL     1     -13.571  -4.683  -1.887  0.00  0.00    +0.096 C 
ATOM      6  C   UNL     1     -14.413  -3.826  -2.485  0.00  0.00    +0.074 C 
BRANCH   5   7
ATOM      7  C   UNL     1     -12.623  -4.559  -0.760  0.00  0.00    +0.330 C 
ATOM      8  O   UNL     1     -12.725  -5.314   0.199  0.00  0.00    -0.246 OA
BRANCH   7   9
ATOM      9  O   UNL     1     -11.663  -3.631  -0.833  0.00  0.00    -0.478 OA
ATOM     10  H   UNL     1     -11.181  -3.437   0.006  0.00  0.00    +0.295 HD
ENDBRANCH   7   9
ENDBRANCH   5   7
ENDBRANCH   1   6
BRANCH   2  11
ATOM     11  C   UNL     1     -14.587  -0.132  -3.088  0.00  0.00    +0.107 C 
BRANCH  11  12
ATOM     12  C   UNL     1     -13.657   0.761  -3.942  0.00  0.00    -0.000 C 
ATOM     13  C   UNL     1     -13.790   2.208  -3.575  0.00  0.00    +0.009 C 
ATOM     14  C   UNL     1     -13.863   0.490  -5.441  0.00  0.00    +0.009 C 
ENDBRANCH  11  12
ENDBRANCH   2  11
TORSDOF 5
ENDMDL
MODEL 5
REMARK VINA RESULT:      -4.9      2.040      2.995
REMARK  Name = min_compound96.pdb
REMARK  7 active torsions:
REMARK  status: ('A' for Active; 'I' for Inactive)
REMARK    1  A    between atoms: _2  and  _5
REMARK    2  A    between atoms: _3  and  _8
REMARK    3  A    between atoms: _5  and  _7
REMARK    4  A    between atoms: _10  and  _11
REMARK    5  A    between atoms: _11  and  _12
REMARK    6  A    between atoms: _12  and  _13
REMARK    7  A    between atoms: _12  and  _14
REMARK                            x       y       z     vdW  Elec       q    Type
REMARK                         _______ _______ _______ _____ _____    ______ ____
ROOT
ATOM      1  C   UNL     1     -11.926   3.456 -16.147  0.00  0.00    +0.237 C 
ATOM      2  N   UNL     1     -11.614   4.002 -17.364  0.00  0.00    -0.312 N 
ATOM      3  H   UNL     1     -10.820   3.656 -17.887  0.00  0.00    +0.149 HD
ATOM      4  O   UNL     1     -12.924   3.726 -15.490  0.00  0.00    -0.271 OA
ENDROOT
BRANCH   1   6
ATOM      5  C   UNL     1     -10.972   1.146 -16.058  0.00  0.00    +0.096 C 
ATOM      6  C   UNL     1     -10.969   2.435 -15.686  0.00  0.00    +0.074 C 
BRANCH   5   7
ATOM      7  C   UNL     1     -11.793   0.362 -17.004  0.00  0.00    +0.330 C 
ATOM      8  O   UNL     1     -12.414  -0.613 -16.598  0.00  0.00    -0.246 OA
BRANCH   7   9
ATOM      9  O   UNL     1     -11.850   0.758 -18.280  0.00  0.00    -0.478 OA
ATOM     10  H   UNL     1     -12.526   0.312 -18.844  0.00  0.00    +0.295 HD
ENDBRANCH   7   9
ENDBRANCH   5   7
ENDBRANCH   1   6
BRANCH   2  11
ATOM     11  C   UNL     1     -12.563   4.857 -18.059  0.00  0.00    +0.107 C 
BRANCH  11  12
ATOM     12  C   UNL     1     -12.446   6.351 -17.678  0.00  0.00    -0.000 C 
ATOM     13  C   UNL     1     -13.755   6.904 -17.199  0.00  0.00    +0.009 C 
ATOM     14  C   UNL     1     -11.824   7.162 -18.825  0.00  0.00    +0.009 C 
ENDBRANCH  11  12
ENDBRANCH   2  11
TORSDOF 5
ENDMDL
MODEL 6
REMARK VINA RESULT:      -4.8     12.964     13.734
REMARK  Name = min_compound96.pdb
REMARK  7 active torsions:
REMARK  status: ('A' for Active; 'I' for Inactive)
REMARK    1  A    between atoms: _2  and  _5
REMARK    2  A    between atoms: _3  and  _8
REMARK    3  A    between atoms: _5  and  _7
REMARK    4  A    between atoms: _10  and  _11
REMARK    5  A    between atoms: _11  and  _12
REMARK    6  A    between atoms: _12  and  _13
REMARK    7  A    between atoms: _12  and  _14
REMARK                            x       y       z     vdW  Elec       q    Type
REMARK                         _______ _______ _______ _____ _____    ______ ____
ROOT
ATOM      1  C   UNL     1     -14.637  -1.643  -3.552  0.00  0.00    +0.237 C 
ATOM      2  N   UNL     1     -14.505  -1.744  -4.912  0.00  0.00    -0.312 N 
ATOM      3  H   UNL     1     -14.922  -2.522  -5.406  0.00  0.00    +0.149 HD
ATOM      4  O   UNL     1     -14.268  -0.690  -2.878  0.00  0.00    -0.271 OA
ENDROOT
BRANCH   1   6
ATOM      5  C   UNL     1     -14.771  -3.679  -2.106  0.00  0.00    +0.096 C 
ATOM      6  C   UNL     1     -15.334  -2.784  -2.933  0.00  0.00    +0.074 C 
BRANCH   5   7
ATOM      7  C   UNL     1     -13.421  -3.815  -1.520  0.00  0.00    +0.330 C 
ATOM      8  O   UNL     1     -12.843  -4.893  -1.580  0.00  0.00    -0.246 OA
BRANCH   7   9
ATOM      9  O   UNL     1     -12.858  -2.740  -0.957  0.00  0.00    -0.478 OA
ATOM     10  H   UNL     1     -12.240  -2.914  -0.209  0.00  0.00    +0.295 HD
ENDBRANCH   7   9
ENDBRANCH   5   7
ENDBRANCH   1   6
BRANCH   2  11
ATOM     11  C   UNL     1     -14.042  -0.612  -5.698  0.00  0.00    +0.107 C 
BRANCH  11  12
ATOM     12  C   UNL     1     -15.167   0.093  -6.491  0.00  0.00    -0.000 C 
ATOM     13  C   UNL     1     -15.998  -0.887  -7.262  0.00  0.00    +0.009 C 
ATOM     14  C   UNL     1     -14.597   1.226  -7.360  0.00  0.00    +0.009 C 
ENDBRANCH  11  12
ENDBRANCH   2  11
TORSDOF 5
ENDMDL
MODEL 7
REMARK VINA RESULT:      -4.7      1.385      1.879
REMARK  Name = min_compound96.pdb
REMARK  7 active torsions:
REMARK  status: ('A' for Active; 'I' for Inactive)
REMARK    1  A    between atoms: _2  and  _5
REMARK    2  A    between atoms: _3  and  _8
REMARK    3  A    between atoms: _5  and  _7
REMARK    4  A    between atoms: _10  and  _11
REMARK    5  A    between atoms: _11  and  _12
REMARK    6  A    between atoms: _12  and  _13
REMARK    7  A    between atoms: _12  and  _14
REMARK                            x       y       z     vdW  Elec       q    Type
REMARK                         _______ _______ _______ _____ _____    ______ ____
ROOT
ATOM      1  C   UNL     1     -12.295   2.278 -16.574  0.00  0.00    +0.237 C 
ATOM      2  N   UNL     1     -11.434   3.125 -17.221  0.00  0.00    -0.312 N 
ATOM      3  H   UNL     1     -10.864   2.785 -17.984  0.00  0.00    +0.149 HD
ATOM      4  O   UNL     1     -13.103   2.616 -15.719  0.00  0.00    -0.271 OA
ENDROOT
BRANCH   1   6
ATOM      5  C   UNL     1     -11.246   0.012 -16.717  0.00  0.00    +0.096 C 
ATOM      6  C   UNL     1     -12.218   0.881 -17.035  0.00  0.00    +0.074 C 
BRANCH   5   7
ATOM      7  C   UNL     1     -10.059   0.090 -15.840  0.00  0.00    +0.330 C 
ATOM      8  O   UNL     1      -9.204  -0.785 -15.904  0.00  0.00    -0.246 OA
BRANCH   7   9
ATOM      9  O   UNL     1      -9.945   1.134 -15.012  0.00  0.00    -0.478 OA
ATOM     10  H   UNL     1      -9.489   1.930 -15.377  0.00  0.00    +0.295 HD
ENDBRANCH   7   9
ENDBRANCH   5   7
ENDBRANCH   1   6
BRANCH   2  11
ATOM     11  C   UNL     1     -11.536   4.565 -17.042  0.00  0.00    +0.107 C 
BRANCH  11  12
ATOM     12  C   UNL     1     -11.841   5.332 -18.350  0.00  0.00    -0.000 C 
ATOM     13  C   UNL     1     -11.895   6.812 -18.124  0.00  0.00    +0.009 C 
ATOM     14  C   UNL     1     -13.100   4.772 -19.032  0.00  0.00    +0.009 C 
ENDBRANCH  11  12
ENDBRANCH   2  11
TORSDOF 5
ENDMDL
MODEL 8
REMARK VINA RESULT:      -4.7     11.572     12.385
REMARK  Name = min_compound96.pdb
REMARK  7 active torsions:
REMARK  status: ('A' for Active; 'I' for Inactive)
REMARK    1  A    between atoms: _2  and  _5
REMARK    2  A    between atoms: _3  and  _8
REMARK    3  A    between atoms: _5  and  _7
REMARK    4  A    between atoms: _10  and  _11
REMARK    5  A    between atoms: _11  and  _12
REMARK    6  A    between atoms: _12  and  _13
REMARK    7  A    between atoms: _12  and  _14
REMARK                            x       y       z     vdW  Elec       q    Type
REMARK                         _______ _______ _______ _____ _____    ______ ____
ROOT
ATOM      1  C   UNL     1     -14.559   1.410  -4.699  0.00  0.00    +0.237 C 
ATOM      2  N   UNL     1     -14.062   0.814  -5.829  0.00  0.00    -0.312 N 
ATOM      3  H   UNL     1     -13.471  -0.003  -5.754  0.00  0.00    +0.149 HD
ATOM      4  O   UNL     1     -15.367   2.329  -4.686  0.00  0.00    -0.271 OA
ENDROOT
BRANCH   1   6
ATOM      5  C   UNL     1     -14.300  -0.457  -3.054  0.00  0.00    +0.096 C 
ATOM      6  C   UNL     1     -14.075   0.808  -3.444  0.00  0.00    +0.074 C 
BRANCH   5   7
ATOM      7  C   UNL     1     -14.981  -1.609  -3.682  0.00  0.00    +0.330 C 
ATOM      8  O   UNL     1     -16.005  -2.051  -3.177  0.00  0.00    -0.246 OA
BRANCH   7   9
ATOM      9  O   UNL     1     -14.464  -2.123  -4.803  0.00  0.00    -0.478 OA
ATOM     10  H   UNL     1     -13.686  -2.719  -4.689  0.00  0.00    +0.295 HD
ENDBRANCH   7   9
ENDBRANCH   5   7
ENDBRANCH   1   6
BRANCH   2  11
ATOM     11  C   UNL     1     -14.604   1.141  -7.139  0.00  0.00    +0.107 C 
BRANCH  11  12
ATOM     12  C   UNL     1     -16.053   0.643  -7.351  0.00  0.00    -0.000 C 
ATOM     13  C   UNL     1     -16.104  -0.841  -7.553  0.00  0.00    +0.009 C 
ATOM     14  C   UNL     1     -16.744   1.435  -8.472  0.00  0.00    +0.009 C 
ENDBRANCH  11  12
ENDBRANCH   2  11
TORSDOF 5
ENDMDL
MODEL 9
REMARK VINA RESULT:      -4.7     11.268     12.241
REMARK  Name = min_compound96.pdb
REMARK  7 active torsions:
REMARK  status: ('A' for Active; 'I' for Inactive)
REMARK    1  A    between atoms: _2  and  _5
REMARK    2  A    between atoms: _3  and  _8
REMARK    3  A    between atoms: _5  and  _7
REMARK    4  A    between atoms: _10  and  _11
REMARK    5  A    between atoms: _11  and  _12
REMARK    6  A    between atoms: _12  and  _13
REMARK    7  A    between atoms: _12  and  _14
REMARK                            x       y       z     vdW  Elec       q    Type
REMARK                         _______ _______ _______ _____ _____    ______ ____
ROOT
ATOM      1  C   UNL     1     -15.209  -0.634  -6.653  0.00  0.00    +0.237 C 
ATOM      2  N   UNL     1     -15.539  -1.306  -5.505  0.00  0.00    -0.312 N 
ATOM      3  H   UNL     1     -16.413  -1.811  -5.446  0.00  0.00    +0.149 HD
ATOM      4  O   UNL     1     -14.134  -0.089  -6.864  0.00  0.00    -0.271 OA
ENDROOT
BRANCH   1   6
ATOM      5  C   UNL     1     -16.812   0.423  -8.255  0.00  0.00    +0.096 C 
ATOM      6  C   UNL     1     -16.262  -0.659  -7.683  0.00  0.00    +0.074 C 
BRANCH   5   7
ATOM      7  C   UNL     1     -16.563   1.875  -8.134  0.00  0.00    +0.330 C 
ATOM      8  O   UNL     1     -17.472   2.614  -7.778  0.00  0.00    -0.246 OA
BRANCH   7   9
ATOM      9  O   UNL     1     -15.336   2.336  -8.399  0.00  0.00    -0.478 OA
ATOM     10  H   UNL     1     -15.138   2.527  -9.347  0.00  0.00    +0.295 HD
ENDBRANCH   7   9
ENDBRANCH   5   7
ENDBRANCH   1   6
BRANCH   2  11
ATOM     11  C   UNL     1     -14.537  -1.563  -4.482  0.00  0.00    +0.107 C 
BRANCH  11  12
ATOM     12  C   UNL     1     -14.728  -0.718  -3.202  0.00  0.00    -0.000 C 
ATOM     13  C   UNL     1     -13.870   0.511  -3.218  0.00  0.00    +0.009 C 
ATOM     14  C   UNL     1     -14.537  -1.579  -1.944  0.00  0.00    +0.009 C 
ENDBRANCH  11  12
ENDBRANCH   2  11
TORSDOF 5
ENDMDL
