MODEL 1
REMARK VINA RESULT:      -7.9      0.000      0.000
REMARK  Name = min_compound964.pdb
REMARK  4 active torsions:
REMARK  status: ('A' for Active; 'I' for Inactive)
REMARK    1  A    between atoms: _5  and  _7
REMARK    2  A    between atoms: _7  and  _9
REMARK    3  A    between atoms: _9  and  _10
REMARK    4  A    between atoms: _9  and  _16
REMARK                            x       y       z     vdW  Elec       q    Type
REMARK                         _______ _______ _______ _____ _____    ______ ____
ROOT
ATOM      1  P   UNL     1     -13.497   3.133 -17.238  0.00  0.00    +0.263 P 
ATOM      2  O   UNL     1     -12.619   3.015 -18.448  0.00  0.00    -0.281 OA
ENDROOT
BRANCH   1   3
ATOM      3  C   UNL     1     -13.599   4.613 -17.455  0.00  0.00    +0.041 A 
ATOM      4  C   UNL     1     -14.817   5.276 -17.761  0.00  0.00    +0.014 A 
ATOM      5  C   UNL     1     -14.915   6.656 -17.983  0.00  0.00    +0.001 A 
ATOM      6  C   UNL     1     -13.777   7.447 -17.936  0.00  0.00    +0.000 A 
ATOM      7  C   UNL     1     -12.547   6.855 -17.688  0.00  0.00    +0.001 A 
ATOM      8  C   UNL     1     -12.469   5.474 -17.466  0.00  0.00    +0.014 A 
ENDBRANCH   1   3
BRANCH   1   9
ATOM      9  C   UNL     1     -14.376   3.250 -16.028  0.00  0.00    +0.041 A 
ATOM     10  C   UNL     1     -15.560   2.485 -15.857  0.00  0.00    +0.014 A 
ATOM     11  C   UNL     1     -16.370   2.556 -14.716  0.00  0.00    +0.001 A 
ATOM     12  C   UNL     1     -16.016   3.393 -13.668  0.00  0.00    +0.000 A 
ATOM     13  C   UNL     1     -14.851   4.141 -13.758  0.00  0.00    +0.001 A 
ATOM     14  C   UNL     1     -14.051   4.054 -14.905  0.00  0.00    +0.014 A 
ENDBRANCH   1   9
BRANCH   1  15
ATOM     15  O   UNL     1     -13.396   1.652 -17.021  0.00  0.00    -0.318 OA
BRANCH  15  20
ATOM     16  C   UNL     1      -9.978   0.692 -15.217  0.00  0.00    +0.003 C 
ATOM     17  C   UNL     1      -9.655  -0.637 -16.015  0.00  0.00    +0.000 C 
ATOM     18  C   UNL     1     -10.146  -0.589 -17.431  0.00  0.00    +0.003 C 
ATOM     19  C   UNL     1     -11.740  -0.303 -17.020  0.00  0.00    +0.032 C 
ATOM     20  C   UNL     1     -12.159   0.909 -16.537  0.00  0.00    +0.127 C 
ATOM     21  C   UNL     1     -11.100   1.650 -15.777  0.00  0.00    +0.032 C 
ENDBRANCH  15  20
ENDBRANCH   1  15
TORSDOF 4
ENDMDL
MODEL 2
REMARK VINA RESULT:      -7.7      1.771      6.025
REMARK  Name = min_compound964.pdb
REMARK  4 active torsions:
REMARK  status: ('A' for Active; 'I' for Inactive)
REMARK    1  A    between atoms: _5  and  _7
REMARK    2  A    between atoms: _7  and  _9
REMARK    3  A    between atoms: _9  and  _10
REMARK    4  A    between atoms: _9  and  _16
REMARK                            x       y       z     vdW  Elec       q    Type
REMARK                         _______ _______ _______ _____ _____    ______ ____
ROOT
ATOM      1  P   UNL     1     -12.723   1.543 -16.592  0.00  0.00    +0.263 P 
ATOM      2  O   UNL     1     -13.524   0.276 -16.535  0.00  0.00    -0.281 OA
ENDROOT
BRANCH   1   3
ATOM      3  C   UNL     1     -11.455   0.741 -16.606  0.00  0.00    +0.041 A 
ATOM      4  C   UNL     1     -10.446   0.894 -17.593  0.00  0.00    +0.014 A 
ATOM      5  C   UNL     1      -9.268   0.135 -17.622  0.00  0.00    +0.001 A 
ATOM      6  C   UNL     1      -9.054  -0.847 -16.667  0.00  0.00    +0.000 A 
ATOM      7  C   UNL     1     -10.023  -1.078 -15.701  0.00  0.00    +0.001 A 
ATOM      8  C   UNL     1     -11.192  -0.308 -15.685  0.00  0.00    +0.014 A 
ENDBRANCH   1   3
BRANCH   1   9
ATOM      9  C   UNL     1     -11.922   2.810 -16.648  0.00  0.00    +0.041 A 
ATOM     10  C   UNL     1     -12.173   3.841 -17.591  0.00  0.00    +0.014 A 
ATOM     11  C   UNL     1     -11.459   5.045 -17.632  0.00  0.00    +0.001 A 
ATOM     12  C   UNL     1     -10.457   5.287 -16.703  0.00  0.00    +0.000 A 
ATOM     13  C   UNL     1     -10.186   4.334 -15.732  0.00  0.00    +0.001 A 
ATOM     14  C   UNL     1     -10.913   3.137 -15.704  0.00  0.00    +0.014 A 
ENDBRANCH   1   9
BRANCH   1  15
ATOM     15  O   UNL     1     -13.990   2.345 -16.577  0.00  0.00    -0.318 OA
BRANCH  15  20
ATOM     16  C   UNL     1     -16.713   2.623 -13.685  0.00  0.00    +0.003 C 
ATOM     17  C   UNL     1     -16.245   3.995 -13.050  0.00  0.00    +0.000 C 
ATOM     18  C   UNL     1     -15.661   4.928 -14.069  0.00  0.00    +0.003 C 
ATOM     19  C   UNL     1     -14.474   3.865 -14.572  0.00  0.00    +0.032 C 
ATOM     20  C   UNL     1     -14.762   2.762 -15.333  0.00  0.00    +0.127 C 
ATOM     21  C   UNL     1     -16.136   2.211 -15.094  0.00  0.00    +0.032 C 
ENDBRANCH  15  20
ENDBRANCH   1  15
TORSDOF 4
ENDMDL
MODEL 3
REMARK VINA RESULT:      -7.6      0.984      1.486
REMARK  Name = min_compound964.pdb
REMARK  4 active torsions:
REMARK  status: ('A' for Active; 'I' for Inactive)
REMARK    1  A    between atoms: _5  and  _7
REMARK    2  A    between atoms: _7  and  _9
REMARK    3  A    between atoms: _9  and  _10
REMARK    4  A    between atoms: _9  and  _16
REMARK                            x       y       z     vdW  Elec       q    Type
REMARK                         _______ _______ _______ _____ _____    ______ ____
ROOT
ATOM      1  P   UNL     1     -12.764   3.751 -16.365  0.00  0.00    +0.263 P 
ATOM      2  O   UNL     1     -11.498   4.057 -17.110  0.00  0.00    -0.281 OA
ENDROOT
BRANCH   1   3
ATOM      3  C   UNL     1     -13.477   4.822 -17.137  0.00  0.00    +0.041 A 
ATOM      4  C   UNL     1     -14.499   4.553 -18.085  0.00  0.00    +0.014 A 
ATOM      5  C   UNL     1     -15.155   5.548 -18.822  0.00  0.00    +0.001 A 
ATOM      6  C   UNL     1     -14.796   6.878 -18.663  0.00  0.00    +0.000 A 
ATOM      7  C   UNL     1     -13.772   7.205 -17.785  0.00  0.00    +0.001 A 
ATOM      8  C   UNL     1     -13.129   6.198 -17.055  0.00  0.00    +0.014 A 
ENDBRANCH   1   3
BRANCH   1   9
ATOM      9  C   UNL     1     -14.030   3.445 -15.621  0.00  0.00    +0.041 A 
ATOM     10  C   UNL     1     -14.849   2.325 -15.918  0.00  0.00    +0.014 A 
ATOM     11  C   UNL     1     -16.013   2.006 -15.207  0.00  0.00    +0.001 A 
ATOM     12  C   UNL     1     -16.406   2.792 -14.135  0.00  0.00    +0.000 A 
ATOM     13  C   UNL     1     -15.628   3.882 -13.769  0.00  0.00    +0.001 A 
ATOM     14  C   UNL     1     -14.466   4.184 -14.490  0.00  0.00    +0.014 A 
ENDBRANCH   1   9
BRANCH   1  15
ATOM     15  O   UNL     1     -12.051   2.680 -15.594  0.00  0.00    -0.318 OA
BRANCH  15  20
ATOM     16  C   UNL     1     -10.798  -0.313 -17.902  0.00  0.00    +0.003 C 
ATOM     17  C   UNL     1      -9.638  -0.858 -16.974  0.00  0.00    +0.000 C 
ATOM     18  C   UNL     1      -9.940  -0.679 -15.515  0.00  0.00    +0.003 C 
ATOM     19  C   UNL     1     -10.138   0.977 -15.613  0.00  0.00    +0.032 C 
ATOM     20  C   UNL     1     -11.239   1.543 -16.199  0.00  0.00    +0.127 C 
ATOM     21  C   UNL     1     -11.836   0.705 -17.289  0.00  0.00    +0.032 C 
ENDBRANCH  15  20
ENDBRANCH   1  15
TORSDOF 4
ENDMDL
MODEL 4
REMARK VINA RESULT:      -7.4      1.757      5.648
REMARK  Name = min_compound964.pdb
REMARK  4 active torsions:
REMARK  status: ('A' for Active; 'I' for Inactive)
REMARK    1  A    between atoms: _5  and  _7
REMARK    2  A    between atoms: _7  and  _9
REMARK    3  A    between atoms: _9  and  _10
REMARK    4  A    between atoms: _9  and  _16
REMARK                            x       y       z     vdW  Elec       q    Type
REMARK                         _______ _______ _______ _____ _____    ______ ____
ROOT
ATOM      1  P   UNL     1     -11.425   3.484 -16.841  0.00  0.00    +0.263 P 
ATOM      2  O   UNL     1     -10.095   3.734 -17.488  0.00  0.00    -0.281 OA
ENDROOT
BRANCH   1   3
ATOM      3  C   UNL     1     -11.069   2.037 -16.667  0.00  0.00    +0.041 A 
ATOM      4  C   UNL     1     -10.558   1.499 -15.457  0.00  0.00    +0.014 A 
ATOM      5  C   UNL     1     -10.206   0.152 -15.295  0.00  0.00    +0.001 A 
ATOM      6  C   UNL     1     -10.325  -0.728 -16.360  0.00  0.00    +0.000 A 
ATOM      7  C   UNL     1     -10.775  -0.256 -17.584  0.00  0.00    +0.001 A 
ATOM      8  C   UNL     1     -11.125   1.093 -17.727  0.00  0.00    +0.014 A 
ENDBRANCH   1   3
BRANCH   1   9
ATOM      9  C   UNL     1     -12.755   3.235 -16.194  0.00  0.00    +0.041 A 
ATOM     10  C   UNL     1     -13.238   4.002 -15.102  0.00  0.00    +0.014 A 
ATOM     11  C   UNL     1     -14.493   3.805 -14.512  0.00  0.00    +0.001 A 
ATOM     12  C   UNL     1     -15.346   2.830 -15.009  0.00  0.00    +0.000 A 
ATOM     13  C   UNL     1     -14.948   2.070 -16.099  0.00  0.00    +0.001 A 
ATOM     14  C   UNL     1     -13.690   2.283 -16.678  0.00  0.00    +0.014 A 
ENDBRANCH   1   9
BRANCH   1  15
ATOM     15  O   UNL     1     -11.781   4.931 -17.015  0.00  0.00    -0.318 OA
BRANCH  15  20
ATOM     16  C   UNL     1     -13.505   5.551 -20.550  0.00  0.00    +0.003 C 
ATOM     17  C   UNL     1     -12.883   6.971 -20.871  0.00  0.00    +0.000 C 
ATOM     18  C   UNL     1     -11.503   7.133 -20.305  0.00  0.00    +0.003 C 
ATOM     19  C   UNL     1     -11.960   6.828 -18.727  0.00  0.00    +0.032 C 
ATOM     20  C   UNL     1     -12.293   5.570 -18.298  0.00  0.00    +0.127 C 
ATOM     21  C   UNL     1     -12.882   4.706 -19.372  0.00  0.00    +0.032 C 
ENDBRANCH  15  20
ENDBRANCH   1  15
TORSDOF 4
ENDMDL
MODEL 5
REMARK VINA RESULT:      -7.3      1.618      4.895
REMARK  Name = min_compound964.pdb
REMARK  4 active torsions:
REMARK  status: ('A' for Active; 'I' for Inactive)
REMARK    1  A    between atoms: _5  and  _7
REMARK    2  A    between atoms: _7  and  _9
REMARK    3  A    between atoms: _9  and  _10
REMARK    4  A    between atoms: _9  and  _16
REMARK                            x       y       z     vdW  Elec       q    Type
REMARK                         _______ _______ _______ _____ _____    ______ ____
ROOT
ATOM      1  P   UNL     1     -13.966   3.907 -17.323  0.00  0.00    +0.263 P 
ATOM      2  O   UNL     1     -15.234   4.691 -17.489  0.00  0.00    -0.281 OA
ENDROOT
BRANCH   1   3
ATOM      3  C   UNL     1     -13.221   4.946 -18.107  0.00  0.00    +0.041 A 
ATOM      4  C   UNL     1     -12.772   6.173 -17.550  0.00  0.00    +0.014 A 
ATOM      5  C   UNL     1     -12.093   7.155 -18.282  0.00  0.00    +0.001 A 
ATOM      6  C   UNL     1     -11.849   6.966 -19.634  0.00  0.00    +0.000 A 
ATOM      7  C   UNL     1     -12.301   5.809 -20.250  0.00  0.00    +0.001 A 
ATOM      8  C   UNL     1     -12.976   4.837 -19.503  0.00  0.00    +0.014 A 
ENDBRANCH   1   3
BRANCH   1   9
ATOM      9  C   UNL     1     -12.698   3.123 -17.157  0.00  0.00    +0.041 A 
ATOM     10  C   UNL     1     -11.710   3.448 -16.191  0.00  0.00    +0.014 A 
ATOM     11  C   UNL     1     -10.539   2.703 -16.000  0.00  0.00    +0.001 A 
ATOM     12  C   UNL     1     -10.308   1.568 -16.763  0.00  0.00    +0.000 A 
ATOM     13  C   UNL     1     -11.253   1.175 -17.700  0.00  0.00    +0.001 A 
ATOM     14  C   UNL     1     -12.419   1.930 -17.876  0.00  0.00    +0.014 A 
ENDBRANCH   1   9
BRANCH   1  15
ATOM     15  O   UNL     1     -14.711   2.867 -16.539  0.00  0.00    -0.318 OA
BRANCH  15  20
ATOM     16  C   UNL     1     -17.062   2.700 -13.330  0.00  0.00    +0.003 C 
ATOM     17  C   UNL     1     -16.403   3.870 -12.492  0.00  0.00    +0.000 C 
ATOM     18  C   UNL     1     -15.851   4.958 -13.364  0.00  0.00    +0.003 C 
ATOM     19  C   UNL     1     -14.830   3.951 -14.220  0.00  0.00    +0.032 C 
ATOM     20  C   UNL     1     -15.300   3.059 -15.148  0.00  0.00    +0.127 C 
ATOM     21  C   UNL     1     -16.683   2.562 -14.855  0.00  0.00    +0.032 C 
ENDBRANCH  15  20
ENDBRANCH   1  15
TORSDOF 4
ENDMDL
MODEL 6
REMARK VINA RESULT:      -7.1      1.967      5.541
REMARK  Name = min_compound964.pdb
REMARK  4 active torsions:
REMARK  status: ('A' for Active; 'I' for Inactive)
REMARK    1  A    between atoms: _5  and  _7
REMARK    2  A    between atoms: _7  and  _9
REMARK    3  A    between atoms: _9  and  _10
REMARK    4  A    between atoms: _9  and  _16
REMARK                            x       y       z     vdW  Elec       q    Type
REMARK                         _______ _______ _______ _____ _____    ______ ____
ROOT
ATOM      1  P   UNL     1     -13.292   4.284 -16.668  0.00  0.00    +0.263 P 
ATOM      2  O   UNL     1     -14.068   5.565 -16.754  0.00  0.00    -0.281 OA
ENDROOT
BRANCH   1   3
ATOM      3  C   UNL     1     -14.331   3.717 -15.746  0.00  0.00    +0.041 A 
ATOM      4  C   UNL     1     -15.186   2.640 -16.101  0.00  0.00    +0.014 A 
ATOM      5  C   UNL     1     -16.170   2.118 -15.251  0.00  0.00    +0.001 A 
ATOM      6  C   UNL     1     -16.368   2.675 -13.997  0.00  0.00    +0.000 A 
ATOM      7  C   UNL     1     -15.597   3.760 -13.606  0.00  0.00    +0.001 A 
ATOM      8  C   UNL     1     -14.616   4.267 -14.468  0.00  0.00    +0.014 A 
ENDBRANCH   1   3
BRANCH   1   9
ATOM      9  C   UNL     1     -12.517   3.003 -16.582  0.00  0.00    +0.041 A 
ATOM     10  C   UNL     1     -12.614   1.975 -17.555  0.00  0.00    +0.014 A 
ATOM     11  C   UNL     1     -11.868   0.790 -17.508  0.00  0.00    +0.001 A 
ATOM     12  C   UNL     1     -10.960   0.585 -16.480  0.00  0.00    +0.000 A 
ATOM     13  C   UNL     1     -10.791   1.568 -15.516  0.00  0.00    +0.001 A 
ATOM     14  C   UNL     1     -11.542   2.748 -15.581  0.00  0.00    +0.014 A 
ENDBRANCH   1   9
BRANCH   1  15
ATOM     15  O   UNL     1     -12.254   4.851 -17.590  0.00  0.00    -0.318 OA
BRANCH  15  20
ATOM     16  C   UNL     1     -13.481   5.728 -21.275  0.00  0.00    +0.003 C 
ATOM     17  C   UNL     1     -12.636   7.048 -21.498  0.00  0.00    +0.000 C 
ATOM     18  C   UNL     1     -11.317   7.011 -20.784  0.00  0.00    +0.003 C 
ATOM     19  C   UNL     1     -11.980   6.765 -19.271  0.00  0.00    +0.032 C 
ATOM     20  C   UNL     1     -12.530   5.564 -18.906  0.00  0.00    +0.127 C 
ATOM     21  C   UNL     1     -13.113   4.798 -20.055  0.00  0.00    +0.032 C 
ENDBRANCH  15  20
ENDBRANCH   1  15
TORSDOF 4
ENDMDL
MODEL 7
REMARK VINA RESULT:      -7.1      1.251      3.563
REMARK  Name = min_compound964.pdb
REMARK  4 active torsions:
REMARK  status: ('A' for Active; 'I' for Inactive)
REMARK    1  A    between atoms: _5  and  _7
REMARK    2  A    between atoms: _7  and  _9
REMARK    3  A    between atoms: _9  and  _10
REMARK    4  A    between atoms: _9  and  _16
REMARK                            x       y       z     vdW  Elec       q    Type
REMARK                         _______ _______ _______ _____ _____    ______ ____
ROOT
ATOM      1  P   UNL     1     -13.678   3.137 -16.952  0.00  0.00    +0.263 P 
ATOM      2  O   UNL     1     -14.227   1.970 -16.185  0.00  0.00    -0.281 OA
ENDROOT
BRANCH   1   3
ATOM      3  C   UNL     1     -14.641   4.049 -16.252  0.00  0.00    +0.041 A 
ATOM      4  C   UNL     1     -15.618   4.824 -16.931  0.00  0.00    +0.014 A 
ATOM      5  C   UNL     1     -16.507   5.692 -16.284  0.00  0.00    +0.001 A 
ATOM      6  C   UNL     1     -16.442   5.851 -14.909  0.00  0.00    +0.000 A 
ATOM      7  C   UNL     1     -15.480   5.157 -14.189  0.00  0.00    +0.001 A 
ATOM      8  C   UNL     1     -14.601   4.291 -14.852  0.00  0.00    +0.014 A 
ENDBRANCH   1   3
BRANCH   1   9
ATOM      9  C   UNL     1     -13.129   4.303 -17.718  0.00  0.00    +0.041 A 
ATOM     10  C   UNL     1     -12.318   5.305 -17.124  0.00  0.00    +0.014 A 
ATOM     11  C   UNL     1     -11.768   6.379 -17.835  0.00  0.00    +0.001 A 
ATOM     12  C   UNL     1     -11.989   6.491 -19.200  0.00  0.00    +0.000 A 
ATOM     13  C   UNL     1     -12.745   5.524 -19.848  0.00  0.00    +0.001 A 
ATOM     14  C   UNL     1     -13.284   4.455 -19.122  0.00  0.00    +0.014 A 
ENDBRANCH   1   9
BRANCH   1  15
ATOM     15  O   UNL     1     -12.716   2.224 -17.652  0.00  0.00    -0.318 OA
BRANCH  15  20
ATOM     16  C   UNL     1     -10.002   0.564 -15.257  0.00  0.00    +0.003 C 
ATOM     17  C   UNL     1      -9.779  -0.787 -16.052  0.00  0.00    +0.000 C 
ATOM     18  C   UNL     1      -9.943  -0.613 -17.533  0.00  0.00    +0.003 C 
ATOM     19  C   UNL     1     -11.503  -0.023 -17.435  0.00  0.00    +0.032 C 
ATOM     20  C   UNL     1     -11.774   1.239 -16.973  0.00  0.00    +0.127 C 
ATOM     21  C   UNL     1     -10.776   1.738 -15.972  0.00  0.00    +0.032 C 
ENDBRANCH  15  20
ENDBRANCH   1  15
TORSDOF 4
ENDMDL
MODEL 8
REMARK VINA RESULT:      -7.1     11.899     14.120
REMARK  Name = min_compound964.pdb
REMARK  4 active torsions:
REMARK  status: ('A' for Active; 'I' for Inactive)
REMARK    1  A    between atoms: _5  and  _7
REMARK    2  A    between atoms: _7  and  _9
REMARK    3  A    between atoms: _9  and  _10
REMARK    4  A    between atoms: _9  and  _16
REMARK                            x       y       z     vdW  Elec       q    Type
REMARK                         _______ _______ _______ _____ _____    ______ ____
ROOT
ATOM      1  P   UNL     1     -16.419  -0.800  -3.703  0.00  0.00    +0.263 P 
ATOM      2  O   UNL     1     -17.380  -1.951  -3.697  0.00  0.00    -0.281 OA
ENDROOT
BRANCH   1   3
ATOM      3  C   UNL     1     -16.695  -0.577  -5.160  0.00  0.00    +0.041 A 
ATOM      4  C   UNL     1     -17.972  -0.220  -5.668  0.00  0.00    +0.014 A 
ATOM      5  C   UNL     1     -18.240  -0.029  -7.030  0.00  0.00    +0.001 A 
ATOM      6  C   UNL     1     -17.234  -0.214  -7.966  0.00  0.00    +0.000 A 
ATOM      7  C   UNL     1     -15.974  -0.607  -7.540  0.00  0.00    +0.001 A 
ATOM      8  C   UNL     1     -15.723  -0.792  -6.174  0.00  0.00    +0.014 A 
ENDBRANCH   1   3
BRANCH   1   9
ATOM      9  C   UNL     1     -15.457   0.352  -3.708  0.00  0.00    +0.041 A 
ATOM     10  C   UNL     1     -15.864   1.696  -3.909  0.00  0.00    +0.014 A 
ATOM     11  C   UNL     1     -14.984   2.785  -3.880  0.00  0.00    +0.001 A 
ATOM     12  C   UNL     1     -13.636   2.578  -3.622  0.00  0.00    +0.000 A 
ATOM     13  C   UNL     1     -13.180   1.290  -3.381  0.00  0.00    +0.001 A 
ATOM     14  C   UNL     1     -14.076   0.214  -3.411  0.00  0.00    +0.014 A 
ENDBRANCH   1   9
BRANCH   1  15
ATOM     15  O   UNL     1     -16.143  -1.023  -2.245  0.00  0.00    -0.318 OA
BRANCH  15  20
ATOM     16  C   UNL     1     -15.442  -4.026   0.274  0.00  0.00    +0.003 C 
ATOM     17  C   UNL     1     -14.295  -4.754  -0.539  0.00  0.00    +0.000 C 
ATOM     18  C   UNL     1     -13.455  -3.794  -1.328  0.00  0.00    +0.003 C 
ATOM     19  C   UNL     1     -14.735  -3.163  -2.195  0.00  0.00    +0.032 C 
ATOM     20  C   UNL     1     -15.656  -2.324  -1.624  0.00  0.00    +0.127 C 
ATOM     21  C   UNL     1     -15.860  -2.567  -0.159  0.00  0.00    +0.032 C 
ENDBRANCH  15  20
ENDBRANCH   1  15
TORSDOF 4
ENDMDL
MODEL 9
REMARK VINA RESULT:      -6.9      0.932      5.502
REMARK  Name = min_compound964.pdb
REMARK  4 active torsions:
REMARK  status: ('A' for Active; 'I' for Inactive)
REMARK    1  A    between atoms: _5  and  _7
REMARK    2  A    between atoms: _7  and  _9
REMARK    3  A    between atoms: _9  and  _10
REMARK    4  A    between atoms: _9  and  _16
REMARK                            x       y       z     vdW  Elec       q    Type
REMARK                         _______ _______ _______ _____ _____    ______ ____
ROOT
ATOM      1  P   UNL     1     -13.483   2.837 -17.517  0.00  0.00    +0.263 P 
ATOM      2  O   UNL     1     -12.735   2.719 -18.812  0.00  0.00    -0.281 OA
ENDROOT
BRANCH   1   3
ATOM      3  C   UNL     1     -12.496   1.916 -16.863  0.00  0.00    +0.041 A 
ATOM      4  C   UNL     1     -11.380   2.373 -16.113  0.00  0.00    +0.014 A 
ATOM      5  C   UNL     1     -10.444   1.518 -15.516  0.00  0.00    +0.001 A 
ATOM      6  C   UNL     1     -10.567   0.145 -15.665  0.00  0.00    +0.000 A 
ATOM      7  C   UNL     1     -11.610  -0.365 -16.423  0.00  0.00    +0.001 A 
ATOM      8  C   UNL     1     -12.537   0.504 -17.011  0.00  0.00    +0.014 A 
ENDBRANCH   1   3
BRANCH   1   9
ATOM      9  C   UNL     1     -14.231   2.955 -16.222  0.00  0.00    +0.041 A 
ATOM     10  C   UNL     1     -13.861   3.863 -15.196  0.00  0.00    +0.014 A 
ATOM     11  C   UNL     1     -14.572   4.010 -13.999  0.00  0.00    +0.001 A 
ATOM     12  C   UNL     1     -15.717   3.260 -13.777  0.00  0.00    +0.000 A 
ATOM     13  C   UNL     1     -16.153   2.380 -14.756  0.00  0.00    +0.001 A 
ATOM     14  C   UNL     1     -15.432   2.247 -15.949  0.00  0.00    +0.014 A 
ENDBRANCH   1   9
BRANCH   1  15
ATOM     15  O   UNL     1     -14.470   3.758 -18.171  0.00  0.00    -0.318 OA
BRANCH  15  20
ATOM     16  C   UNL     1     -13.406   7.593 -18.062  0.00  0.00    +0.003 C 
ATOM     17  C   UNL     1     -14.722   8.186 -17.412  0.00  0.00    +0.000 C 
ATOM     18  C   UNL     1     -15.375   7.224 -16.464  0.00  0.00    +0.003 C 
ATOM     19  C   UNL     1     -15.552   6.007 -17.595  0.00  0.00    +0.032 C 
ATOM     20  C   UNL     1     -14.486   5.275 -18.046  0.00  0.00    +0.127 C 
ATOM     21  C   UNL     1     -13.191   6.030 -18.033  0.00  0.00    +0.032 C 
ENDBRANCH  15  20
ENDBRANCH   1  15
TORSDOF 4
ENDMDL
