MODEL 1
REMARK VINA RESULT:      -7.5      0.000      0.000
REMARK  Name = min_compound987.pdb
REMARK  4 active torsions:
REMARK  status: ('A' for Active; 'I' for Inactive)
REMARK    1  A    between atoms: _6  and  _21
REMARK    2  A    between atoms: _7  and  _20
REMARK    3  A    between atoms: _14  and  _15
REMARK    4  A    between atoms: _18  and  _19
REMARK                            x       y       z     vdW  Elec       q    Type
REMARK                         _______ _______ _______ _____ _____    ______ ____
ROOT
ATOM      1  C   UNL     1     -15.714   1.269  -3.887  0.00  0.00    +0.005 A 
ATOM      2  C   UNL     1     -14.374   1.237  -3.495  0.00  0.00    -0.050 A 
ATOM      3  C   UNL     1     -13.484   2.419  -3.735  0.00  0.00    +0.044 C 
ATOM      4  C   UNL     1     -13.849   0.065  -2.928  0.00  0.00    +0.014 A 
ATOM      5  C   UNL     1     -14.676  -1.066  -2.737  0.00  0.00    +0.008 A 
ATOM      6  C   UNL     1     -14.459  -2.373  -2.197  0.00  0.00    +0.008 A 
ATOM      7  C   UNL     1     -13.329  -2.961  -1.620  0.00  0.00    +0.011 A 
ATOM      8  C   UNL     1     -13.397  -4.277  -1.172  0.00  0.00    +0.013 A 
ATOM      9  C   UNL     1     -14.523  -5.098  -1.347  0.00  0.00    +0.029 A 
ATOM     10  C   UNL     1     -14.452  -6.448  -0.861  0.00  0.00    +0.125 A 
ATOM     11  C   UNL     1     -15.590  -7.209  -1.148  0.00  0.00    +0.049 A 
ATOM     12  C   UNL     1     -16.696  -6.729  -1.873  0.00  0.00    +0.049 A 
ATOM     13  C   UNL     1     -16.818  -5.420  -2.370  0.00  0.00    +0.127 A 
ATOM     14  C   UNL     1     -15.700  -4.557  -2.028  0.00  0.00    +0.051 A 
ATOM     15  C   UNL     1     -15.634  -3.127  -2.339  0.00  0.00    +0.061 A 
ATOM     16  N   UNL     1     -16.590  -2.193  -2.739  0.00  0.00    -0.342 N 
ATOM     17  C   UNL     1     -18.023  -2.323  -2.577  0.00  0.00    +0.149 C 
ATOM     18  C   UNL     1     -16.007  -0.990  -3.112  0.00  0.00    +0.050 A 
ATOM     19  C   UNL     1     -16.554   0.166  -3.693  0.00  0.00    +0.027 A 
ENDROOT
BRANCH  10  20
ATOM     20  O   UNL     1     -13.465  -6.973  -0.218  0.00  0.00    -0.506 OA
ATOM     21  H   UNL     1     -13.539  -7.840   0.126  0.00  0.00    +0.292 HD
ENDBRANCH  10  20
BRANCH  13  22
ATOM     22  O   UNL     1     -17.838  -5.128  -3.094  0.00  0.00    -0.506 OA
ATOM     23  H   UNL     1     -18.389  -4.408  -2.858  0.00  0.00    +0.292 HD
ENDBRANCH  13  22
TORSDOF 2
ENDMDL
MODEL 2
REMARK VINA RESULT:      -7.5     14.857     16.318
REMARK  Name = min_compound987.pdb
REMARK  4 active torsions:
REMARK  status: ('A' for Active; 'I' for Inactive)
REMARK    1  A    between atoms: _6  and  _21
REMARK    2  A    between atoms: _7  and  _20
REMARK    3  A    between atoms: _14  and  _15
REMARK    4  A    between atoms: _18  and  _19
REMARK                            x       y       z     vdW  Elec       q    Type
REMARK                         _______ _______ _______ _____ _____    ______ ____
ROOT
ATOM      1  C   UNL     1     -14.995   7.975 -16.708  0.00  0.00    +0.005 A 
ATOM      2  C   UNL     1     -16.035   7.263 -16.106  0.00  0.00    -0.050 A 
ATOM      3  C   UNL     1     -17.246   7.978 -15.587  0.00  0.00    +0.044 C 
ATOM      4  C   UNL     1     -15.912   5.875 -15.936  0.00  0.00    +0.014 A 
ATOM      5  C   UNL     1     -14.755   5.201 -16.389  0.00  0.00    +0.008 A 
ATOM      6  C   UNL     1     -14.332   3.834 -16.374  0.00  0.00    +0.008 A 
ATOM      7  C   UNL     1     -14.973   2.672 -15.932  0.00  0.00    +0.011 A 
ATOM      8  C   UNL     1     -14.317   1.449 -16.036  0.00  0.00    +0.013 A 
ATOM      9  C   UNL     1     -12.992   1.316 -16.482  0.00  0.00    +0.029 A 
ATOM     10  C   UNL     1     -12.424  -0.003 -16.515  0.00  0.00    +0.125 A 
ATOM     11  C   UNL     1     -11.079  -0.026 -16.901  0.00  0.00    +0.049 A 
ATOM     12  C   UNL     1     -10.325   1.124 -17.197  0.00  0.00    +0.049 A 
ATOM     13  C   UNL     1     -10.830   2.435 -17.181  0.00  0.00    +0.127 A 
ATOM     14  C   UNL     1     -12.247   2.514 -16.870  0.00  0.00    +0.051 A 
ATOM     15  C   UNL     1     -13.030   3.752 -16.890  0.00  0.00    +0.061 A 
ATOM     16  N   UNL     1     -12.793   5.022 -17.417  0.00  0.00    -0.342 N 
ATOM     17  C   UNL     1     -11.831   5.347 -18.449  0.00  0.00    +0.149 C 
ATOM     18  C   UNL     1     -13.754   5.935 -17.007  0.00  0.00    +0.050 A 
ATOM     19  C   UNL     1     -13.847   7.326 -17.177  0.00  0.00    +0.027 A 
ENDROOT
BRANCH  10  20
ATOM     20  O   UNL     1     -13.035  -1.101 -16.227  0.00  0.00    -0.506 OA
ATOM     21  H   UNL     1     -13.234  -1.307 -15.336  0.00  0.00    +0.292 HD
ENDBRANCH  10  20
BRANCH  13  22
ATOM     22  O   UNL     1     -10.019   3.411 -17.384  0.00  0.00    -0.506 OA
ATOM     23  H   UNL     1     -10.352   4.261 -17.592  0.00  0.00    +0.292 HD
ENDBRANCH  13  22
TORSDOF 2
ENDMDL
MODEL 3
REMARK VINA RESULT:      -7.3     14.825     16.983
REMARK  Name = min_compound987.pdb
REMARK  4 active torsions:
REMARK  status: ('A' for Active; 'I' for Inactive)
REMARK    1  A    between atoms: _6  and  _21
REMARK    2  A    between atoms: _7  and  _20
REMARK    3  A    between atoms: _14  and  _15
REMARK    4  A    between atoms: _18  and  _19
REMARK                            x       y       z     vdW  Elec       q    Type
REMARK                         _______ _______ _______ _____ _____    ______ ____
ROOT
ATOM      1  C   UNL     1     -11.101  -0.153 -16.630  0.00  0.00    +0.005 A 
ATOM      2  C   UNL     1     -10.154   0.644 -17.277  0.00  0.00    -0.050 A 
ATOM      3  C   UNL     1      -8.829   0.072 -17.683  0.00  0.00    +0.044 C 
ATOM      4  C   UNL     1     -10.427   2.004 -17.490  0.00  0.00    +0.014 A 
ATOM      5  C   UNL     1     -11.660   2.557 -17.073  0.00  0.00    +0.008 A 
ATOM      6  C   UNL     1     -12.235   3.865 -17.143  0.00  0.00    +0.008 A 
ATOM      7  C   UNL     1     -11.766   5.054 -17.711  0.00  0.00    +0.011 A 
ATOM      8  C   UNL     1     -12.545   6.204 -17.631  0.00  0.00    +0.013 A 
ATOM      9  C   UNL     1     -13.758   6.271 -16.925  0.00  0.00    +0.029 A 
ATOM     10  C   UNL     1     -14.451   7.528 -16.899  0.00  0.00    +0.125 A 
ATOM     11  C   UNL     1     -15.607   7.516 -16.111  0.00  0.00    +0.049 A 
ATOM     12  C   UNL     1     -16.047   6.401 -15.375  0.00  0.00    +0.049 A 
ATOM     13  C   UNL     1     -15.408   5.149 -15.365  0.00  0.00    +0.127 A 
ATOM     14  C   UNL     1     -14.247   5.077 -16.236  0.00  0.00    +0.051 A 
ATOM     15  C   UNL     1     -13.472   3.857 -16.480  0.00  0.00    +0.061 A 
ATOM     16  N   UNL     1     -13.717   2.506 -16.236  0.00  0.00    -0.342 N 
ATOM     17  C   UNL     1     -15.016   1.907 -16.013  0.00  0.00    +0.149 C 
ATOM     18  C   UNL     1     -12.588   1.731 -16.459  0.00  0.00    +0.050 A 
ATOM     19  C   UNL     1     -12.334   0.370 -16.222  0.00  0.00    +0.027 A 
ENDROOT
BRANCH  10  20
ATOM     20  O   UNL     1     -14.098   8.604 -17.517  0.00  0.00    -0.506 OA
ATOM     21  H   UNL     1     -13.315   8.612 -18.032  0.00  0.00    +0.292 HD
ENDBRANCH  10  20
BRANCH  13  22
ATOM     22  O   UNL     1     -15.857   4.234 -14.584  0.00  0.00    -0.506 OA
ATOM     23  H   UNL     1     -15.262   3.653 -14.151  0.00  0.00    +0.292 HD
ENDBRANCH  13  22
TORSDOF 2
ENDMDL
MODEL 4
REMARK VINA RESULT:      -7.1     15.119     17.148
REMARK  Name = min_compound987.pdb
REMARK  4 active torsions:
REMARK  status: ('A' for Active; 'I' for Inactive)
REMARK    1  A    between atoms: _6  and  _21
REMARK    2  A    between atoms: _7  and  _20
REMARK    3  A    between atoms: _14  and  _15
REMARK    4  A    between atoms: _18  and  _19
REMARK                            x       y       z     vdW  Elec       q    Type
REMARK                         _______ _______ _______ _____ _____    ______ ____
ROOT
ATOM      1  C   UNL     1      -9.963   1.203 -17.158  0.00  0.00    +0.005 A 
ATOM      2  C   UNL     1     -10.980   0.421 -16.605  0.00  0.00    -0.050 A 
ATOM      3  C   UNL     1     -10.804  -1.060 -16.457  0.00  0.00    +0.044 C 
ATOM      4  C   UNL     1     -12.195   1.025 -16.245  0.00  0.00    +0.014 A 
ATOM      5  C   UNL     1     -12.379   2.415 -16.421  0.00  0.00    +0.008 A 
ATOM      6  C   UNL     1     -13.461   3.314 -16.158  0.00  0.00    +0.008 A 
ATOM      7  C   UNL     1     -14.717   3.106 -15.577  0.00  0.00    +0.011 A 
ATOM      8  C   UNL     1     -15.593   4.179 -15.443  0.00  0.00    +0.013 A 
ATOM      9  C   UNL     1     -15.328   5.464 -15.945  0.00  0.00    +0.029 A 
ATOM     10  C   UNL     1     -16.330   6.476 -15.762  0.00  0.00    +0.125 A 
ATOM     11  C   UNL     1     -16.009   7.699 -16.360  0.00  0.00    +0.049 A 
ATOM     12  C   UNL     1     -14.837   7.928 -17.105  0.00  0.00    +0.049 A 
ATOM     13  C   UNL     1     -13.826   6.975 -17.314  0.00  0.00    +0.127 A 
ATOM     14  C   UNL     1     -14.065   5.709 -16.642  0.00  0.00    +0.051 A 
ATOM     15  C   UNL     1     -13.116   4.593 -16.619  0.00  0.00    +0.061 A 
ATOM     16  N   UNL     1     -11.760   4.487 -16.929  0.00  0.00    -0.342 N 
ATOM     17  C   UNL     1     -10.817   5.584 -16.995  0.00  0.00    +0.149 C 
ATOM     18  C   UNL     1     -11.340   3.165 -16.946  0.00  0.00    +0.050 A 
ATOM     19  C   UNL     1     -10.119   2.584 -17.327  0.00  0.00    +0.027 A 
ENDROOT
BRANCH  10  20
ATOM     20  O   UNL     1     -17.442   6.338 -15.124  0.00  0.00    -0.506 OA
ATOM     21  H   UNL     1     -17.498   5.740 -14.405  0.00  0.00    +0.292 HD
ENDBRANCH  10  20
BRANCH  13  22
ATOM     22  O   UNL     1     -12.845   7.276 -18.087  0.00  0.00    -0.506 OA
ATOM     23  H   UNL     1     -13.011   7.630 -18.938  0.00  0.00    +0.292 HD
ENDBRANCH  13  22
TORSDOF 2
ENDMDL
MODEL 5
REMARK VINA RESULT:      -6.9     14.705     17.018
REMARK  Name = min_compound987.pdb
REMARK  4 active torsions:
REMARK  status: ('A' for Active; 'I' for Inactive)
REMARK    1  A    between atoms: _6  and  _21
REMARK    2  A    between atoms: _7  and  _20
REMARK    3  A    between atoms: _14  and  _15
REMARK    4  A    between atoms: _18  and  _19
REMARK                            x       y       z     vdW  Elec       q    Type
REMARK                         _______ _______ _______ _____ _____    ______ ____
ROOT
ATOM      1  C   UNL     1     -11.897   1.921 -17.814  0.00  0.00    +0.005 A 
ATOM      2  C   UNL     1     -12.553   1.264 -16.771  0.00  0.00    -0.050 A 
ATOM      3  C   UNL     1     -12.395  -0.215 -16.586  0.00  0.00    +0.044 C 
ATOM      4  C   UNL     1     -13.413   1.989 -15.932  0.00  0.00    +0.014 A 
ATOM      5  C   UNL     1     -13.596   3.377 -16.127  0.00  0.00    +0.008 A 
ATOM      6  C   UNL     1     -14.373   4.379 -15.464  0.00  0.00    +0.008 A 
ATOM      7  C   UNL     1     -15.198   4.315 -14.336  0.00  0.00    +0.011 A 
ATOM      8  C   UNL     1     -15.850   5.464 -13.900  0.00  0.00    +0.013 A 
ATOM      9  C   UNL     1     -15.803   6.689 -14.586  0.00  0.00    +0.029 A 
ATOM     10  C   UNL     1     -16.545   7.792 -14.042  0.00  0.00    +0.125 A 
ATOM     11  C   UNL     1     -16.498   8.945 -14.833  0.00  0.00    +0.049 A 
ATOM     12  C   UNL     1     -15.825   9.028 -16.065  0.00  0.00    +0.049 A 
ATOM     13  C   UNL     1     -15.085   7.982 -16.642  0.00  0.00    +0.127 A 
ATOM     14  C   UNL     1     -15.027   6.784 -15.822  0.00  0.00    +0.051 A 
ATOM     15  C   UNL     1     -14.237   5.594 -16.152  0.00  0.00    +0.061 A 
ATOM     16  N   UNL     1     -13.207   5.355 -17.062  0.00  0.00    -0.342 N 
ATOM     17  C   UNL     1     -12.365   6.361 -17.674  0.00  0.00    +0.149 C 
ATOM     18  C   UNL     1     -12.908   4.003 -17.154  0.00  0.00    +0.050 A 
ATOM     19  C   UNL     1     -12.053   3.298 -18.017  0.00  0.00    +0.027 A 
ENDROOT
BRANCH  10  20
ATOM     20  O   UNL     1     -17.213   7.788 -12.939  0.00  0.00    -0.506 OA
ATOM     21  H   UNL     1     -17.726   7.040 -12.705  0.00  0.00    +0.292 HD
ENDBRANCH  10  20
BRANCH  13  22
ATOM     22  O   UNL     1     -14.589   8.151 -17.815  0.00  0.00    -0.506 OA
ATOM     23  H   UNL     1     -15.142   8.106 -18.569  0.00  0.00    +0.292 HD
ENDBRANCH  13  22
TORSDOF 2
ENDMDL
MODEL 6
REMARK VINA RESULT:      -6.9     15.500     18.227
REMARK  Name = min_compound987.pdb
REMARK  4 active torsions:
REMARK  status: ('A' for Active; 'I' for Inactive)
REMARK    1  A    between atoms: _6  and  _21
REMARK    2  A    between atoms: _7  and  _20
REMARK    3  A    between atoms: _14  and  _15
REMARK    4  A    between atoms: _18  and  _19
REMARK                            x       y       z     vdW  Elec       q    Type
REMARK                         _______ _______ _______ _____ _____    ______ ____
ROOT
ATOM      1  C   UNL     1     -10.444   1.263 -15.513  0.00  0.00    +0.005 A 
ATOM      2  C   UNL     1     -10.331   0.436 -16.634  0.00  0.00    -0.050 A 
ATOM      3  C   UNL     1      -9.333  -0.681 -16.657  0.00  0.00    +0.044 C 
ATOM      4  C   UNL     1     -11.120   0.698 -17.766  0.00  0.00    +0.014 A 
ATOM      5  C   UNL     1     -12.035   1.776 -17.763  0.00  0.00    +0.008 A 
ATOM      6  C   UNL     1     -12.962   2.294 -18.722  0.00  0.00    +0.008 A 
ATOM      7  C   UNL     1     -13.309   1.855 -20.004  0.00  0.00    +0.011 A 
ATOM      8  C   UNL     1     -14.259   2.562 -20.734  0.00  0.00    +0.013 A 
ATOM      9  C   UNL     1     -14.838   3.764 -20.293  0.00  0.00    +0.029 A 
ATOM     10  C   UNL     1     -15.787   4.408 -21.157  0.00  0.00    +0.125 A 
ATOM     11  C   UNL     1     -16.251   5.634 -20.667  0.00  0.00    +0.049 A 
ATOM     12  C   UNL     1     -15.815   6.217 -19.463  0.00  0.00    +0.049 A 
ATOM     13  C   UNL     1     -14.891   5.630 -18.581  0.00  0.00    +0.127 A 
ATOM     14  C   UNL     1     -14.439   4.313 -18.997  0.00  0.00    +0.051 A 
ATOM     15  C   UNL     1     -13.557   3.454 -18.203  0.00  0.00    +0.061 A 
ATOM     16  N   UNL     1     -13.155   3.473 -16.868  0.00  0.00    -0.342 N 
ATOM     17  C   UNL     1     -13.833   4.159 -15.788  0.00  0.00    +0.149 C 
ATOM     18  C   UNL     1     -12.140   2.559 -16.624  0.00  0.00    +0.050 A 
ATOM     19  C   UNL     1     -11.353   2.327 -15.484  0.00  0.00    +0.027 A 
ENDROOT
BRANCH  10  20
ATOM     20  O   UNL     1     -16.212   3.959 -22.288  0.00  0.00    -0.506 OA
ATOM     21  H   UNL     1     -15.697   4.075 -23.062  0.00  0.00    +0.292 HD
ENDBRANCH  10  20
BRANCH  13  22
ATOM     22  O   UNL     1     -14.506   6.301 -17.556  0.00  0.00    -0.506 OA
ATOM     23  H   UNL     1     -14.715   6.000 -16.693  0.00  0.00    +0.292 HD
ENDBRANCH  13  22
TORSDOF 2
ENDMDL
MODEL 7
REMARK VINA RESULT:      -6.7     14.981     17.116
REMARK  Name = min_compound987.pdb
REMARK  4 active torsions:
REMARK  status: ('A' for Active; 'I' for Inactive)
REMARK    1  A    between atoms: _6  and  _21
REMARK    2  A    between atoms: _7  and  _20
REMARK    3  A    between atoms: _14  and  _15
REMARK    4  A    between atoms: _18  and  _19
REMARK                            x       y       z     vdW  Elec       q    Type
REMARK                         _______ _______ _______ _____ _____    ______ ____
ROOT
ATOM      1  C   UNL     1     -11.882   0.767 -16.578  0.00  0.00    +0.005 A 
ATOM      2  C   UNL     1     -10.948   1.612 -17.183  0.00  0.00    -0.050 A 
ATOM      3  C   UNL     1      -9.602   1.091 -17.586  0.00  0.00    +0.044 C 
ATOM      4  C   UNL     1     -11.256   2.970 -17.355  0.00  0.00    +0.014 A 
ATOM      5  C   UNL     1     -12.510   3.475 -16.939  0.00  0.00    +0.008 A 
ATOM      6  C   UNL     1     -13.121   4.768 -16.975  0.00  0.00    +0.008 A 
ATOM      7  C   UNL     1     -12.676   5.988 -17.496  0.00  0.00    +0.011 A 
ATOM      8  C   UNL     1     -13.489   7.112 -17.390  0.00  0.00    +0.013 A 
ATOM      9  C   UNL     1     -14.713   7.122 -16.702  0.00  0.00    +0.029 A 
ATOM     10  C   UNL     1     -15.442   8.358 -16.645  0.00  0.00    +0.125 A 
ATOM     11  C   UNL     1     -16.609   8.288 -15.876  0.00  0.00    +0.049 A 
ATOM     12  C   UNL     1     -17.028   7.137 -15.184  0.00  0.00    +0.049 A 
ATOM     13  C   UNL     1     -16.355   5.903 -15.206  0.00  0.00    +0.127 A 
ATOM     14  C   UNL     1     -15.179   5.892 -16.061  0.00  0.00    +0.051 A 
ATOM     15  C   UNL     1     -14.367   4.703 -16.332  0.00  0.00    +0.061 A 
ATOM     16  N   UNL     1     -14.577   3.339 -16.137  0.00  0.00    -0.342 N 
ATOM     17  C   UNL     1     -15.862   2.696 -15.954  0.00  0.00    +0.149 C 
ATOM     18  C   UNL     1     -13.424   2.603 -16.368  0.00  0.00    +0.050 A 
ATOM     19  C   UNL     1     -13.135   1.243 -16.172  0.00  0.00    +0.027 A 
ENDROOT
BRANCH  10  20
ATOM     20  O   UNL     1     -15.110   9.463 -17.221  0.00  0.00    -0.506 OA
ATOM     21  H   UNL     1     -14.210   9.720 -17.258  0.00  0.00    +0.292 HD
ENDBRANCH  10  20
BRANCH  13  22
ATOM     22  O   UNL     1     -16.789   4.950 -14.462  0.00  0.00    -0.506 OA
ATOM     23  H   UNL     1     -17.546   5.082 -13.926  0.00  0.00    +0.292 HD
ENDBRANCH  13  22
TORSDOF 2
ENDMDL
MODEL 8
REMARK VINA RESULT:      -6.5      2.765      6.341
REMARK  Name = min_compound987.pdb
REMARK  4 active torsions:
REMARK  status: ('A' for Active; 'I' for Inactive)
REMARK    1  A    between atoms: _6  and  _21
REMARK    2  A    between atoms: _7  and  _20
REMARK    3  A    between atoms: _14  and  _15
REMARK    4  A    between atoms: _18  and  _19
REMARK                            x       y       z     vdW  Elec       q    Type
REMARK                         _______ _______ _______ _____ _____    ______ ____
ROOT
ATOM      1  C   UNL     1     -17.190  -5.455  -1.876  0.00  0.00    +0.005 A 
ATOM      2  C   UNL     1     -15.822  -5.414  -1.599  0.00  0.00    -0.050 A 
ATOM      3  C   UNL     1     -15.131  -6.603  -1.003  0.00  0.00    +0.044 C 
ATOM      4  C   UNL     1     -15.108  -4.227  -1.828  0.00  0.00    +0.014 A 
ATOM      5  C   UNL     1     -15.764  -3.090  -2.353  0.00  0.00    +0.008 A 
ATOM      6  C   UNL     1     -15.337  -1.769  -2.698  0.00  0.00    +0.008 A 
ATOM      7  C   UNL     1     -14.075  -1.166  -2.668  0.00  0.00    +0.011 A 
ATOM      8  C   UNL     1     -13.943   0.161  -3.063  0.00  0.00    +0.013 A 
ATOM      9  C   UNL     1     -15.032   0.978  -3.412  0.00  0.00    +0.029 A 
ATOM     10  C   UNL     1     -14.759   2.341  -3.775  0.00  0.00    +0.125 A 
ATOM     11  C   UNL     1     -15.909   3.095  -4.032  0.00  0.00    +0.049 A 
ATOM     12  C   UNL     1     -17.220   2.596  -3.916  0.00  0.00    +0.049 A 
ATOM     13  C   UNL     1     -17.542   1.274  -3.565  0.00  0.00    +0.127 A 
ATOM     14  C   UNL     1     -16.383   0.420  -3.370  0.00  0.00    +0.051 A 
ATOM     15  C   UNL     1     -16.453  -1.018  -3.100  0.00  0.00    +0.061 A 
ATOM     16  N   UNL     1     -17.474  -1.962  -3.213  0.00  0.00    -0.342 N 
ATOM     17  C   UNL     1     -18.668  -1.826  -4.020  0.00  0.00    +0.149 C 
ATOM     18  C   UNL     1     -17.116  -3.175  -2.643  0.00  0.00    +0.050 A 
ATOM     19  C   UNL     1     -17.857  -4.346  -2.411  0.00  0.00    +0.027 A 
ENDROOT
BRANCH  10  20
ATOM     20  O   UNL     1     -13.593   2.883  -3.872  0.00  0.00    -0.506 OA
ATOM     21  H   UNL     1     -13.193   2.987  -4.713  0.00  0.00    +0.292 HD
ENDBRANCH  10  20
BRANCH  13  22
ATOM     22  O   UNL     1     -18.778   0.963  -3.406  0.00  0.00    -0.506 OA
ATOM     23  H   UNL     1     -19.444   1.613  -3.517  0.00  0.00    +0.292 HD
ENDBRANCH  13  22
TORSDOF 2
ENDMDL
MODEL 9
REMARK VINA RESULT:      -6.5      4.125      7.451
REMARK  Name = min_compound987.pdb
REMARK  4 active torsions:
REMARK  status: ('A' for Active; 'I' for Inactive)
REMARK    1  A    between atoms: _6  and  _21
REMARK    2  A    between atoms: _7  and  _20
REMARK    3  A    between atoms: _14  and  _15
REMARK    4  A    between atoms: _18  and  _19
REMARK                            x       y       z     vdW  Elec       q    Type
REMARK                         _______ _______ _______ _____ _____    ______ ____
ROOT
ATOM      1  C   UNL     1     -16.236  -2.568  -2.161  0.00  0.00    +0.005 A 
ATOM      2  C   UNL     1     -14.897  -2.269  -2.427  0.00  0.00    -0.050 A 
ATOM      3  C   UNL     1     -13.810  -2.793  -1.538  0.00  0.00    +0.044 C 
ATOM      4  C   UNL     1     -14.580  -1.421  -3.500  0.00  0.00    +0.014 A 
ATOM      5  C   UNL     1     -15.605  -0.892  -4.317  0.00  0.00    +0.008 A 
ATOM      6  C   UNL     1     -15.619  -0.030  -5.459  0.00  0.00    +0.008 A 
ATOM      7  C   UNL     1     -14.580   0.553  -6.192  0.00  0.00    +0.011 A 
ATOM      8  C   UNL     1     -14.883   1.368  -7.277  0.00  0.00    +0.013 A 
ATOM      9  C   UNL     1     -16.193   1.723  -7.638  0.00  0.00    +0.029 A 
ATOM     10  C   UNL     1     -16.366   2.595  -8.766  0.00  0.00    +0.125 A 
ATOM     11  C   UNL     1     -17.699   2.951  -9.002  0.00  0.00    +0.049 A 
ATOM     12  C   UNL     1     -18.778   2.536  -8.201  0.00  0.00    +0.049 A 
ATOM     13  C   UNL     1     -18.665   1.684  -7.089  0.00  0.00    +0.127 A 
ATOM     14  C   UNL     1     -17.313   1.212  -6.847  0.00  0.00    +0.051 A 
ATOM     15  C   UNL     1     -16.950   0.237  -5.815  0.00  0.00    +0.061 A 
ATOM     16  N   UNL     1     -17.694  -0.649  -5.036  0.00  0.00    -0.342 N 
ATOM     17  C   UNL     1     -19.031  -1.119  -5.329  0.00  0.00    +0.149 C 
ATOM     18  C   UNL     1     -16.920  -1.232  -4.042  0.00  0.00    +0.050 A 
ATOM     19  C   UNL     1     -17.266  -2.067  -2.967  0.00  0.00    +0.027 A 
ENDROOT
BRANCH  10  20
ATOM     20  O   UNL     1     -15.429   3.046  -9.529  0.00  0.00    -0.506 OA
ATOM     21  H   UNL     1     -15.646   3.493 -10.323  0.00  0.00    +0.292 HD
ENDBRANCH  10  20
BRANCH  13  22
ATOM     22  O   UNL     1     -19.713   1.448  -6.384  0.00  0.00    -0.506 OA
ATOM     23  H   UNL     1     -20.039   0.572  -6.308  0.00  0.00    +0.292 HD
ENDBRANCH  13  22
TORSDOF 2
ENDMDL
