MODEL 1
REMARK VINA RESULT:      -8.0      0.000      0.000
REMARK  Name = min_compound982.pdb
REMARK  0 active torsions:
REMARK  status: ('A' for Active; 'I' for Inactive)
REMARK                            x       y       z     vdW  Elec       q    Type
REMARK                         _______ _______ _______ _____ _____    ______ ____
ROOT
ATOM      1  C   UNL     1     -12.333   5.537 -18.086  0.00  0.00    +0.040 C 
ATOM      2  C   UNL     1     -13.487   6.210 -17.399  0.00  0.00    -0.040 A 
ATOM      3  C   UNL     1     -13.713   7.565 -17.743  0.00  0.00    +0.004 A 
ATOM      4  C   UNL     1     -14.719   8.313 -17.147  0.00  0.00    +0.000 A 
ATOM      5  C   UNL     1     -15.531   7.716 -16.205  0.00  0.00    +0.000 A 
ATOM      6  C   UNL     1     -15.331   6.373 -15.873  0.00  0.00    +0.008 A 
ATOM      7  C   UNL     1     -14.300   5.571 -16.442  0.00  0.00    +0.004 A 
ATOM      8  C   UNL     1     -14.223   4.078 -16.015  0.00  0.00    +0.168 C 
ATOM      9  C   UNL     1     -14.377   3.924 -14.475  0.00  0.00    +0.099 C 
ATOM     10  C   UNL     1     -15.769   3.430 -14.319  0.00  0.00    +0.034 C 
ATOM     11  C   UNL     1     -16.458   3.261 -13.185  0.00  0.00    +0.019 C 
ATOM     12  C   UNL     1     -16.344   3.160 -15.650  0.00  0.00    +0.336 C 
ATOM     13  O   UNL     1     -17.446   2.690 -15.870  0.00  0.00    -0.245 OA
ATOM     14  O   UNL     1     -15.432   3.505 -16.591  0.00  0.00    -0.445 OA
ATOM     15  C   UNL     1     -13.068   3.128 -16.435  0.00  0.00    +0.004 A 
ATOM     16  C   UNL     1     -13.301   1.727 -16.336  0.00  0.00    +0.008 A 
ATOM     17  C   UNL     1     -12.300   0.775 -16.540  0.00  0.00    +0.000 A 
ATOM     18  C   UNL     1     -11.018   1.188 -16.855  0.00  0.00    +0.000 A 
ATOM     19  C   UNL     1     -10.755   2.546 -16.985  0.00  0.00    +0.004 A 
ATOM     20  C   UNL     1     -11.763   3.518 -16.792  0.00  0.00    -0.040 A 
ATOM     21  C   UNL     1     -11.384   4.946 -17.057  0.00  0.00    +0.040 C 
ENDROOT
TORSDOF 0
ENDMDL
MODEL 2
REMARK VINA RESULT:      -7.6     12.802     14.617
REMARK  Name = min_compound982.pdb
REMARK  0 active torsions:
REMARK  status: ('A' for Active; 'I' for Inactive)
REMARK                            x       y       z     vdW  Elec       q    Type
REMARK                         _______ _______ _______ _____ _____    ______ ____
ROOT
ATOM      1  C   UNL     1     -17.240   1.776  -4.288  0.00  0.00    +0.040 C 
ATOM      2  C   UNL     1     -15.820   1.535  -3.861  0.00  0.00    -0.040 A 
ATOM      3  C   UNL     1     -14.944   2.644  -3.957  0.00  0.00    +0.004 A 
ATOM      4  C   UNL     1     -13.597   2.542  -3.636  0.00  0.00    +0.000 A 
ATOM      5  C   UNL     1     -13.102   1.331  -3.195  0.00  0.00    +0.000 A 
ATOM      6  C   UNL     1     -13.962   0.236  -3.076  0.00  0.00    +0.008 A 
ATOM      7  C   UNL     1     -15.345   0.287  -3.412  0.00  0.00    +0.004 A 
ATOM      8  C   UNL     1     -16.194  -0.995  -3.185  0.00  0.00    +0.168 C 
ATOM      9  C   UNL     1     -15.455  -2.261  -3.705  0.00  0.00    +0.099 C 
ATOM     10  C   UNL     1     -14.966  -2.907  -2.460  0.00  0.00    +0.034 C 
ATOM     11  C   UNL     1     -14.150  -3.961  -2.348  0.00  0.00    +0.019 C 
ATOM     12  C   UNL     1     -15.499  -2.183  -1.291  0.00  0.00    +0.336 C 
ATOM     13  O   UNL     1     -15.337  -2.491  -0.125  0.00  0.00    -0.245 OA
ATOM     14  O   UNL     1     -16.220  -1.124  -1.734  0.00  0.00    -0.445 OA
ATOM     15  C   UNL     1     -17.672  -1.134  -3.644  0.00  0.00    +0.004 A 
ATOM     16  C   UNL     1     -18.454  -2.159  -3.039  0.00  0.00    +0.008 A 
ATOM     17  C   UNL     1     -19.743  -2.481  -3.468  0.00  0.00    +0.000 A 
ATOM     18  C   UNL     1     -20.306  -1.787  -4.523  0.00  0.00    +0.000 A 
ATOM     19  C   UNL     1     -19.585  -0.763  -5.124  0.00  0.00    +0.004 A 
ATOM     20  C   UNL     1     -18.284  -0.420  -4.691  0.00  0.00    -0.040 A 
ATOM     21  C   UNL     1     -17.644   0.767  -5.350  0.00  0.00    +0.040 C 
ENDROOT
TORSDOF 0
ENDMDL
MODEL 3
REMARK VINA RESULT:      -7.6      1.278      4.614
REMARK  Name = min_compound982.pdb
REMARK  0 active torsions:
REMARK  status: ('A' for Active; 'I' for Inactive)
REMARK                            x       y       z     vdW  Elec       q    Type
REMARK                         _______ _______ _______ _____ _____    ______ ____
ROOT
ATOM      1  C   UNL     1     -11.494   5.781 -17.337  0.00  0.00    +0.040 C 
ATOM      2  C   UNL     1     -11.621   4.366 -16.848  0.00  0.00    -0.040 A 
ATOM      3  C   UNL     1     -10.464   3.558 -16.971  0.00  0.00    +0.004 A 
ATOM      4  C   UNL     1     -10.463   2.221 -16.598  0.00  0.00    +0.000 A 
ATOM      5  C   UNL     1     -11.615   1.669 -16.077  0.00  0.00    +0.000 A 
ATOM      6  C   UNL     1     -12.757   2.462 -15.931  0.00  0.00    +0.008 A 
ATOM      7  C   UNL     1     -12.812   3.831 -16.318  0.00  0.00    +0.004 A 
ATOM      8  C   UNL     1     -14.134   4.607 -16.055  0.00  0.00    +0.168 C 
ATOM      9  C   UNL     1     -15.373   3.770 -16.481  0.00  0.00    +0.099 C 
ATOM     10  C   UNL     1     -15.923   3.290 -15.188  0.00  0.00    +0.034 C 
ATOM     11  C   UNL     1     -16.916   2.414 -14.992  0.00  0.00    +0.019 C 
ATOM     12  C   UNL     1     -15.178   3.913 -14.079  0.00  0.00    +0.336 C 
ATOM     13  O   UNL     1     -15.417   3.776 -12.892  0.00  0.00    -0.245 OA
ATOM     14  O   UNL     1     -14.191   4.681 -14.601  0.00  0.00    -0.445 OA
ATOM     15  C   UNL     1     -14.390   6.054 -16.558  0.00  0.00    +0.004 A 
ATOM     16  C   UNL     1     -15.432   6.793 -15.929  0.00  0.00    +0.008 A 
ATOM     17  C   UNL     1     -15.858   8.042 -16.386  0.00  0.00    +0.000 A 
ATOM     18  C   UNL     1     -15.255   8.607 -17.495  0.00  0.00    +0.000 A 
ATOM     19  C   UNL     1     -14.218   7.928 -18.123  0.00  0.00    +0.004 A 
ATOM     20  C   UNL     1     -13.770   6.669 -17.662  0.00  0.00    -0.040 A 
ATOM     21  C   UNL     1     -12.578   6.080 -18.359  0.00  0.00    +0.040 C 
ENDROOT
TORSDOF 0
ENDMDL
MODEL 4
REMARK VINA RESULT:      -7.6      1.672      4.375
REMARK  Name = min_compound982.pdb
REMARK  0 active torsions:
REMARK  status: ('A' for Active; 'I' for Inactive)
REMARK                            x       y       z     vdW  Elec       q    Type
REMARK                         _______ _______ _______ _____ _____    ______ ____
ROOT
ATOM      1  C   UNL     1     -15.115   6.684 -16.434  0.00  0.00    +0.040 C 
ATOM      2  C   UNL     1     -13.858   6.383 -17.201  0.00  0.00    -0.040 A 
ATOM      3  C   UNL     1     -13.257   7.479 -17.867  0.00  0.00    +0.004 A 
ATOM      4  C   UNL     1     -12.118   7.326 -18.646  0.00  0.00    +0.000 A 
ATOM      5  C   UNL     1     -11.547   6.075 -18.762  0.00  0.00    +0.000 A 
ATOM      6  C   UNL     1     -12.120   4.990 -18.092  0.00  0.00    +0.008 A 
ATOM      7  C   UNL     1     -13.298   5.094 -17.299  0.00  0.00    +0.004 A 
ATOM      8  C   UNL     1     -13.799   3.814 -16.572  0.00  0.00    +0.168 C 
ATOM      9  C   UNL     1     -13.771   2.581 -17.519  0.00  0.00    +0.099 C 
ATOM     10  C   UNL     1     -12.574   1.827 -17.064  0.00  0.00    +0.034 C 
ATOM     11  C   UNL     1     -12.016   0.752 -17.632  0.00  0.00    +0.019 C 
ATOM     12  C   UNL     1     -12.026   2.465 -15.853  0.00  0.00    +0.336 C 
ATOM     13  O   UNL     1     -11.083   2.061 -15.197  0.00  0.00    -0.245 OA
ATOM     14  O   UNL     1     -12.762   3.570 -15.578  0.00  0.00    -0.445 OA
ATOM     15  C   UNL     1     -15.144   3.740 -15.799  0.00  0.00    +0.004 A 
ATOM     16  C   UNL     1     -15.304   2.685 -14.857  0.00  0.00    +0.008 A 
ATOM     17  C   UNL     1     -16.513   2.423 -14.210  0.00  0.00    +0.000 A 
ATOM     18  C   UNL     1     -17.618   3.210 -14.480  0.00  0.00    +0.000 A 
ATOM     19  C   UNL     1     -17.497   4.266 -15.376  0.00  0.00    +0.004 A 
ATOM     20  C   UNL     1     -16.274   4.548 -16.027  0.00  0.00    -0.040 A 
ATOM     21  C   UNL     1     -16.239   5.772 -16.895  0.00  0.00    +0.040 C 
ENDROOT
TORSDOF 0
ENDMDL
MODEL 5
REMARK VINA RESULT:      -7.5      1.613      4.576
REMARK  Name = min_compound982.pdb
REMARK  0 active torsions:
REMARK  status: ('A' for Active; 'I' for Inactive)
REMARK                            x       y       z     vdW  Elec       q    Type
REMARK                         _______ _______ _______ _____ _____    ______ ____
ROOT
ATOM      1  C   UNL     1     -16.077   5.648 -16.949  0.00  0.00    +0.040 C 
ATOM      2  C   UNL     1     -16.050   4.383 -16.140  0.00  0.00    -0.040 A 
ATOM      3  C   UNL     1     -17.262   4.025 -15.500  0.00  0.00    +0.004 A 
ATOM      4  C   UNL     1     -17.358   2.904 -14.687  0.00  0.00    +0.000 A 
ATOM      5  C   UNL     1     -16.245   2.107 -14.510  0.00  0.00    +0.000 A 
ATOM      6  C   UNL     1     -15.049   2.438 -15.153  0.00  0.00    +0.008 A 
ATOM      7  C   UNL     1     -14.897   3.588 -15.980  0.00  0.00    +0.004 A 
ATOM      8  C   UNL     1     -13.522   3.808 -16.671  0.00  0.00    +0.168 C 
ATOM      9  C   UNL     1     -12.348   3.574 -15.678  0.00  0.00    +0.099 C 
ATOM     10  C   UNL     1     -11.827   2.241 -16.073  0.00  0.00    +0.034 C 
ATOM     11  C   UNL     1     -10.899   1.504 -15.451  0.00  0.00    +0.019 C 
ATOM     12  C   UNL     1     -12.520   1.787 -17.293  0.00  0.00    +0.336 C 
ATOM     13  O   UNL     1     -12.286   0.763 -17.909  0.00  0.00    -0.245 OA
ATOM     14  O   UNL     1     -13.452   2.712 -17.628  0.00  0.00    -0.445 OA
ATOM     15  C   UNL     1     -13.165   5.089 -17.474  0.00  0.00    +0.004 A 
ATOM     16  C   UNL     1     -12.069   5.012 -18.380  0.00  0.00    +0.008 A 
ATOM     17  C   UNL     1     -11.557   6.127 -19.048  0.00  0.00    +0.000 A 
ATOM     18  C   UNL     1     -12.124   7.370 -18.836  0.00  0.00    +0.000 A 
ATOM     19  C   UNL     1     -13.211   7.484 -17.978  0.00  0.00    +0.004 A 
ATOM     20  C   UNL     1     -13.746   6.361 -17.306  0.00  0.00    -0.040 A 
ATOM     21  C   UNL     1     -14.980   6.590 -16.484  0.00  0.00    +0.040 C 
ENDROOT
TORSDOF 0
ENDMDL
MODEL 6
REMARK VINA RESULT:      -7.5     12.682     14.638
REMARK  Name = min_compound982.pdb
REMARK  0 active torsions:
REMARK  status: ('A' for Active; 'I' for Inactive)
REMARK                            x       y       z     vdW  Elec       q    Type
REMARK                         _______ _______ _______ _____ _____    ______ ____
ROOT
ATOM      1  C   UNL     1     -17.519   0.806  -5.264  0.00  0.00    +0.040 C 
ATOM      2  C   UNL     1     -18.164  -0.399  -4.641  0.00  0.00    -0.040 A 
ATOM      3  C   UNL     1     -19.454  -0.734  -5.123  0.00  0.00    +0.004 A 
ATOM      4  C   UNL     1     -20.176  -1.798  -4.600  0.00  0.00    +0.000 A 
ATOM      5  C   UNL     1     -19.616  -2.560  -3.595  0.00  0.00    +0.000 A 
ATOM      6  C   UNL     1     -18.335  -2.252  -3.126  0.00  0.00    +0.008 A 
ATOM      7  C   UNL     1     -17.565  -1.159  -3.617  0.00  0.00    +0.004 A 
ATOM      8  C   UNL     1     -16.136  -0.960  -3.038  0.00  0.00    +0.168 C 
ATOM      9  C   UNL     1     -16.130  -1.103  -1.489  0.00  0.00    +0.099 C 
ATOM     10  C   UNL     1     -15.545  -2.450  -1.272  0.00  0.00    +0.034 C 
ATOM     11  C   UNL     1     -15.439  -3.125  -0.121  0.00  0.00    +0.019 C 
ATOM     12  C   UNL     1     -15.092  -3.001  -2.563  0.00  0.00    +0.336 C 
ATOM     13  O   UNL     1     -14.514  -4.060  -2.725  0.00  0.00    -0.245 OA
ATOM     14  O   UNL     1     -15.410  -2.119  -3.542  0.00  0.00    -0.445 OA
ATOM     15  C   UNL     1     -15.244   0.268  -3.365  0.00  0.00    +0.004 A 
ATOM     16  C   UNL     1     -13.846   0.149  -3.120  0.00  0.00    +0.008 A 
ATOM     17  C   UNL     1     -12.963   1.225  -3.232  0.00  0.00    +0.000 A 
ATOM     18  C   UNL     1     -13.443   2.469  -3.598  0.00  0.00    +0.000 A 
ATOM     19  C   UNL     1     -14.797   2.621  -3.870  0.00  0.00    +0.004 A 
ATOM     20  C   UNL     1     -15.699   1.537  -3.772  0.00  0.00    -0.040 A 
ATOM     21  C   UNL     1     -17.117   1.799  -4.186  0.00  0.00    +0.040 C 
ENDROOT
TORSDOF 0
ENDMDL
MODEL 7
REMARK VINA RESULT:      -7.3      8.917     12.635
REMARK  Name = min_compound982.pdb
REMARK  0 active torsions:
REMARK  status: ('A' for Active; 'I' for Inactive)
REMARK                            x       y       z     vdW  Elec       q    Type
REMARK                         _______ _______ _______ _____ _____    ______ ____
ROOT
ATOM      1  C   UNL     1     -17.569  -0.762  -3.338  0.00  0.00    +0.040 C 
ATOM      2  C   UNL     1     -18.414  -0.567  -4.564  0.00  0.00    -0.040 A 
ATOM      3  C   UNL     1     -19.634  -1.285  -4.602  0.00  0.00    +0.004 A 
ATOM      4  C   UNL     1     -20.485  -1.226  -5.697  0.00  0.00    +0.000 A 
ATOM      5  C   UNL     1     -20.140  -0.433  -6.773  0.00  0.00    +0.000 A 
ATOM      6  C   UNL     1     -18.948   0.297  -6.739  0.00  0.00    +0.008 A 
ATOM      7  C   UNL     1     -18.035   0.253  -5.646  0.00  0.00    +0.004 A 
ATOM      8  C   UNL     1     -16.770   1.154  -5.722  0.00  0.00    +0.168 C 
ATOM      9  C   UNL     1     -16.099   1.067  -7.121  0.00  0.00    +0.099 C 
ATOM     10  C   UNL     1     -16.496   2.342  -7.771  0.00  0.00    +0.034 C 
ATOM     11  C   UNL     1     -16.296   2.714  -9.041  0.00  0.00    +0.019 C 
ATOM     12  C   UNL     1     -17.206   3.188  -6.794  0.00  0.00    +0.336 C 
ATOM     13  O   UNL     1     -17.610   4.320  -6.989  0.00  0.00    -0.245 OA
ATOM     14  O   UNL     1     -17.316   2.501  -5.631  0.00  0.00    -0.445 OA
ATOM     15  C   UNL     1     -15.618   1.098  -4.681  0.00  0.00    +0.004 A 
ATOM     16  C   UNL     1     -14.736   2.214  -4.617  0.00  0.00    +0.008 A 
ATOM     17  C   UNL     1     -13.581   2.223  -3.833  0.00  0.00    +0.000 A 
ATOM     18  C   UNL     1     -13.259   1.111  -3.076  0.00  0.00    +0.000 A 
ATOM     19  C   UNL     1     -14.106   0.010  -3.093  0.00  0.00    +0.004 A 
ATOM     20  C   UNL     1     -15.285  -0.006  -3.873  0.00  0.00    -0.040 A 
ATOM     21  C   UNL     1     -16.171  -1.209  -3.733  0.00  0.00    +0.040 C 
ENDROOT
TORSDOF 0
ENDMDL
MODEL 8
REMARK VINA RESULT:      -7.3      9.967     13.059
REMARK  Name = min_compound982.pdb
REMARK  0 active torsions:
REMARK  status: ('A' for Active; 'I' for Inactive)
REMARK                            x       y       z     vdW  Elec       q    Type
REMARK                         _______ _______ _______ _____ _____    ______ ____
ROOT
ATOM      1  C   UNL     1     -13.995  -0.274  -5.380  0.00  0.00    +0.040 C 
ATOM      2  C   UNL     1     -15.069   0.471  -6.120  0.00  0.00    -0.040 A 
ATOM      3  C   UNL     1     -14.657   1.166  -7.283  0.00  0.00    +0.004 A 
ATOM      4  C   UNL     1     -15.543   1.930  -8.031  0.00  0.00    +0.000 A 
ATOM      5  C   UNL     1     -16.865   1.999  -7.640  0.00  0.00    +0.000 A 
ATOM      6  C   UNL     1     -17.288   1.300  -6.506  0.00  0.00    +0.008 A 
ATOM      7  C   UNL     1     -16.413   0.522  -5.696  0.00  0.00    +0.004 A 
ATOM      8  C   UNL     1     -17.028  -0.242  -4.490  0.00  0.00    +0.168 C 
ATOM      9  C   UNL     1     -18.005   0.664  -3.688  0.00  0.00    +0.099 C 
ATOM     10  C   UNL     1     -19.344   0.175  -4.105  0.00  0.00    +0.034 C 
ATOM     11  C   UNL     1     -20.539   0.702  -3.813  0.00  0.00    +0.019 C 
ATOM     12  C   UNL     1     -19.186  -1.020  -4.954  0.00  0.00    +0.336 C 
ATOM     13  O   UNL     1     -20.089  -1.698  -5.410  0.00  0.00    -0.245 OA
ATOM     14  O   UNL     1     -17.862  -1.252  -5.127  0.00  0.00    -0.445 OA
ATOM     15  C   UNL     1     -16.177  -1.004  -3.437  0.00  0.00    +0.004 A 
ATOM     16  C   UNL     1     -16.840  -1.979  -2.638  0.00  0.00    +0.008 A 
ATOM     17  C   UNL     1     -16.225  -2.623  -1.562  0.00  0.00    +0.000 A 
ATOM     18  C   UNL     1     -14.915  -2.318  -1.241  0.00  0.00    +0.000 A 
ATOM     19  C   UNL     1     -14.225  -1.389  -2.011  0.00  0.00    +0.004 A 
ATOM     20  C   UNL     1     -14.834  -0.740  -3.110  0.00  0.00    -0.040 A 
ATOM     21  C   UNL     1     -13.960   0.167  -3.927  0.00  0.00    +0.040 C 
ENDROOT
TORSDOF 0
ENDMDL
MODEL 9
REMARK VINA RESULT:      -7.2      2.503      4.561
REMARK  Name = min_compound982.pdb
REMARK  0 active torsions:
REMARK  status: ('A' for Active; 'I' for Inactive)
REMARK                            x       y       z     vdW  Elec       q    Type
REMARK                         _______ _______ _______ _____ _____    ______ ____
ROOT
ATOM      1  C   UNL     1     -16.895   3.414 -16.923  0.00  0.00    +0.040 C 
ATOM      2  C   UNL     1     -16.136   3.725 -15.664  0.00  0.00    -0.040 A 
ATOM      3  C   UNL     1     -16.919   3.989 -14.513  0.00  0.00    +0.004 A 
ATOM      4  C   UNL     1     -16.341   4.332 -13.298  0.00  0.00    +0.000 A 
ATOM      5  C   UNL     1     -14.966   4.402 -13.205  0.00  0.00    +0.000 A 
ATOM      6  C   UNL     1     -14.182   4.124 -14.329  0.00  0.00    +0.008 A 
ATOM      7  C   UNL     1     -14.729   3.787 -15.600  0.00  0.00    +0.004 A 
ATOM      8  C   UNL     1     -13.739   3.455 -16.751  0.00  0.00    +0.168 C 
ATOM      9  C   UNL     1     -12.575   4.484 -16.808  0.00  0.00    +0.099 C 
ATOM     10  C   UNL     1     -11.433   3.742 -16.215  0.00  0.00    +0.034 C 
ATOM     11  C   UNL     1     -10.220   4.213 -15.902  0.00  0.00    +0.019 C 
ATOM     12  C   UNL     1     -11.832   2.343 -15.974  0.00  0.00    +0.336 C 
ATOM     13  O   UNL     1     -11.111   1.457 -15.551  0.00  0.00    -0.245 OA
ATOM     14  O   UNL     1     -13.135   2.202 -16.319  0.00  0.00    -0.445 OA
ATOM     15  C   UNL     1     -14.184   3.220 -18.221  0.00  0.00    +0.004 A 
ATOM     16  C   UNL     1     -13.277   2.539 -19.081  0.00  0.00    +0.008 A 
ATOM     17  C   UNL     1     -13.494   2.398 -20.453  0.00  0.00    +0.000 A 
ATOM     18  C   UNL     1     -14.635   2.932 -21.023  0.00  0.00    +0.000 A 
ATOM     19  C   UNL     1     -15.558   3.583 -20.214  0.00  0.00    +0.004 A 
ATOM     20  C   UNL     1     -15.354   3.721 -18.822  0.00  0.00    -0.040 A 
ATOM     21  C   UNL     1     -16.466   4.355 -18.037  0.00  0.00    +0.040 C 
ENDROOT
TORSDOF 0
ENDMDL
