MODEL 1
REMARK VINA RESULT:      -5.6      0.000      0.000
REMARK  Name = min_compound931.pdb
REMARK  1 active torsions:
REMARK  status: ('A' for Active; 'I' for Inactive)
REMARK    1  A    between atoms: _9  and  _13
REMARK                            x       y       z     vdW  Elec       q    Type
REMARK                         _______ _______ _______ _____ _____    ______ ____
ROOT
ATOM      1  C   UNL     1     -10.336   0.938 -15.882  0.00  0.00    +0.183 A 
ATOM      2  N   UNL     1     -10.434   0.389 -17.070  0.00  0.00    -0.148 NA
ATOM      3  N   UNL     1     -11.375   1.031 -17.851  0.00  0.00    -0.126 NA
ATOM      4  C   UNL     1     -11.963   2.034 -17.234  0.00  0.00    +0.191 A 
ATOM      5  N   UNL     1     -12.941   2.889 -17.732  0.00  0.00    -0.231 N 
ATOM      6  C   UNL     1     -13.390   2.686 -19.040  0.00  0.00    +0.232 C 
ATOM      7  C   UNL     1     -14.390   3.736 -19.476  0.00  0.00    +0.167 C 
ATOM      8  S   UNL     1     -14.374   5.040 -18.241  0.00  0.00    -0.123 S 
ATOM      9  O   UNL     1     -13.070   1.786 -19.810  0.00  0.00    -0.274 OA
ATOM     10  C   UNL     1     -13.560   3.986 -17.022  0.00  0.00    +0.178 C 
ATOM     11  S   UNL     1     -11.373   2.275 -15.633  0.00  0.00    -0.038 S 
ENDROOT
BRANCH  10  12
ATOM     12  C   UNL     1     -14.545   3.525 -15.971  0.00  0.00    +0.021 A 
ATOM     13  S   UNL     1     -14.924   4.470 -14.583  0.00  0.00    -0.099 S 
ATOM     14  C   UNL     1     -16.020   3.301 -13.995  0.00  0.00    +0.045 A 
ATOM     15  C   UNL     1     -16.104   2.206 -14.824  0.00  0.00    +0.008 A 
ATOM     16  C   UNL     1     -15.253   2.333 -15.959  0.00  0.00    +0.014 A 
ENDBRANCH  10  12
TORSDOF 1
ENDMDL
MODEL 2
REMARK VINA RESULT:      -5.6      2.422      4.113
REMARK  Name = min_compound931.pdb
REMARK  1 active torsions:
REMARK  status: ('A' for Active; 'I' for Inactive)
REMARK    1  A    between atoms: _9  and  _13
REMARK                            x       y       z     vdW  Elec       q    Type
REMARK                         _______ _______ _______ _____ _____    ______ ____
ROOT
ATOM      1  C   UNL     1     -13.459   7.003 -18.561  0.00  0.00    +0.183 A 
ATOM      2  N   UNL     1     -12.262   7.307 -18.117  0.00  0.00    -0.148 NA
ATOM      3  N   UNL     1     -11.677   6.240 -17.463  0.00  0.00    -0.126 NA
ATOM      4  C   UNL     1     -12.444   5.171 -17.427  0.00  0.00    +0.191 A 
ATOM      5  N   UNL     1     -12.160   3.933 -16.859  0.00  0.00    -0.231 N 
ATOM      6  C   UNL     1     -10.921   3.764 -16.234  0.00  0.00    +0.232 C 
ATOM      7  C   UNL     1     -10.714   2.348 -15.737  0.00  0.00    +0.167 C 
ATOM      8  S   UNL     1     -12.025   1.337 -16.435  0.00  0.00    -0.123 S 
ATOM      9  O   UNL     1     -10.049   4.609 -16.059  0.00  0.00    -0.274 OA
ATOM     10  C   UNL     1     -13.030   2.779 -16.844  0.00  0.00    +0.178 C 
ATOM     11  S   UNL     1     -13.954   5.402 -18.225  0.00  0.00    -0.038 S 
ENDROOT
BRANCH  10  12
ATOM     12  C   UNL     1     -14.179   2.922 -15.871  0.00  0.00    +0.021 A 
ATOM     13  S   UNL     1     -14.167   4.076 -14.592  0.00  0.00    -0.099 S 
ATOM     14  C   UNL     1     -15.709   3.593 -14.043  0.00  0.00    +0.045 A 
ATOM     15  C   UNL     1     -16.234   2.575 -14.804  0.00  0.00    +0.008 A 
ATOM     16  C   UNL     1     -15.353   2.186 -15.853  0.00  0.00    +0.014 A 
ENDBRANCH  10  12
TORSDOF 1
ENDMDL
MODEL 3
REMARK VINA RESULT:      -5.5     11.892     13.600
REMARK  Name = min_compound931.pdb
REMARK  1 active torsions:
REMARK  status: ('A' for Active; 'I' for Inactive)
REMARK    1  A    between atoms: _9  and  _13
REMARK                            x       y       z     vdW  Elec       q    Type
REMARK                         _______ _______ _______ _____ _____    ______ ____
ROOT
ATOM      1  C   UNL     1     -15.558  -3.136  -2.296  0.00  0.00    +0.183 A 
ATOM      2  N   UNL     1     -14.349  -2.759  -1.953  0.00  0.00    -0.148 NA
ATOM      3  N   UNL     1     -14.088  -1.463  -2.355  0.00  0.00    -0.126 NA
ATOM      4  C   UNL     1     -15.097  -0.905  -2.990  0.00  0.00    +0.191 A 
ATOM      5  N   UNL     1     -15.170   0.382  -3.514  0.00  0.00    -0.231 N 
ATOM      6  C   UNL     1     -14.055   1.214  -3.378  0.00  0.00    +0.232 C 
ATOM      7  C   UNL     1     -14.305   2.606  -3.919  0.00  0.00    +0.167 C 
ATOM      8  S   UNL     1     -16.067   2.750  -4.240  0.00  0.00    -0.123 S 
ATOM      9  O   UNL     1     -12.962   0.929  -2.899  0.00  0.00    -0.274 OA
ATOM     10  C   UNL     1     -16.302   0.961  -4.204  0.00  0.00    +0.178 C 
ATOM     11  S   UNL     1     -16.464  -1.944  -3.121  0.00  0.00    -0.038 S 
ENDROOT
BRANCH  10  12
ATOM     12  C   UNL     1     -16.478   0.417  -5.604  0.00  0.00    +0.021 A 
ATOM     13  S   UNL     1     -18.005  -0.098  -6.209  0.00  0.00    -0.099 S 
ATOM     14  C   UNL     1     -17.345  -0.521  -7.725  0.00  0.00    +0.045 A 
ATOM     15  C   UNL     1     -15.991  -0.284  -7.784  0.00  0.00    +0.008 A 
ATOM     16  C   UNL     1     -15.491   0.251  -6.563  0.00  0.00    +0.014 A 
ENDBRANCH  10  12
TORSDOF 1
ENDMDL
MODEL 4
REMARK VINA RESULT:      -5.1      2.303      4.741
REMARK  Name = min_compound931.pdb
REMARK  1 active torsions:
REMARK  status: ('A' for Active; 'I' for Inactive)
REMARK    1  A    between atoms: _9  and  _13
REMARK                            x       y       z     vdW  Elec       q    Type
REMARK                         _______ _______ _______ _____ _____    ______ ____
ROOT
ATOM      1  C   UNL     1     -16.291   3.622 -15.088  0.00  0.00    +0.183 A 
ATOM      2  N   UNL     1     -16.188   2.333 -15.310  0.00  0.00    -0.148 NA
ATOM      3  N   UNL     1     -14.929   1.995 -15.766  0.00  0.00    -0.126 NA
ATOM      4  C   UNL     1     -14.124   3.030 -15.880  0.00  0.00    +0.191 A 
ATOM      5  N   UNL     1     -12.797   3.039 -16.298  0.00  0.00    -0.231 N 
ATOM      6  C   UNL     1     -12.211   1.822 -16.658  0.00  0.00    +0.232 C 
ATOM      7  C   UNL     1     -10.745   1.970 -17.010  0.00  0.00    +0.167 C 
ATOM      8  S   UNL     1     -10.237   3.620 -16.515  0.00  0.00    -0.123 S 
ATOM      9  O   UNL     1     -12.748   0.721 -16.716  0.00  0.00    -0.274 OA
ATOM     10  C   UNL     1     -11.942   4.201 -16.405  0.00  0.00    +0.178 C 
ATOM     11  S   UNL     1     -14.866   4.512 -15.407  0.00  0.00    -0.038 S 
ENDROOT
BRANCH  10  12
ATOM     12  C   UNL     1     -12.286   5.075 -17.591  0.00  0.00    +0.021 A 
ATOM     13  S   UNL     1     -13.017   4.449 -19.018  0.00  0.00    -0.099 S 
ATOM     14  C   UNL     1     -13.050   5.984 -19.764  0.00  0.00    +0.045 A 
ATOM     15  C   UNL     1     -12.516   6.962 -18.957  0.00  0.00    +0.008 A 
ATOM     16  C   UNL     1     -12.073   6.439 -17.709  0.00  0.00    +0.014 A 
ENDBRANCH  10  12
TORSDOF 1
ENDMDL
MODEL 5
REMARK VINA RESULT:      -5.1      5.417      7.496
REMARK  Name = min_compound931.pdb
REMARK  1 active torsions:
REMARK  status: ('A' for Active; 'I' for Inactive)
REMARK    1  A    between atoms: _9  and  _13
REMARK                            x       y       z     vdW  Elec       q    Type
REMARK                         _______ _______ _______ _____ _____    ______ ____
ROOT
ATOM      1  C   UNL     1     -16.430   8.834 -15.393  0.00  0.00    +0.183 A 
ATOM      2  N   UNL     1     -17.423   9.165 -14.602  0.00  0.00    -0.148 NA
ATOM      3  N   UNL     1     -17.518   8.311 -13.521  0.00  0.00    -0.126 NA
ATOM      4  C   UNL     1     -16.606   7.363 -13.528  0.00  0.00    +0.191 A 
ATOM      5  N   UNL     1     -16.414   6.353 -12.591  0.00  0.00    -0.231 N 
ATOM      6  C   UNL     1     -17.281   6.298 -11.495  0.00  0.00    +0.232 C 
ATOM      7  C   UNL     1     -16.905   5.204 -10.517  0.00  0.00    +0.167 C 
ATOM      8  S   UNL     1     -15.281   4.598 -10.986  0.00  0.00    -0.123 S 
ATOM      9  O   UNL     1     -18.258   7.006 -11.277  0.00  0.00    -0.274 OA
ATOM     10  C   UNL     1     -15.394   5.329 -12.633  0.00  0.00    +0.178 C 
ATOM     11  S   UNL     1     -15.538   7.470 -14.876  0.00  0.00    -0.038 S 
ENDROOT
BRANCH  10  12
ATOM     12  C   UNL     1     -15.671   4.265 -13.671  0.00  0.00    +0.021 A 
ATOM     13  S   UNL     1     -14.531   3.847 -14.891  0.00  0.00    -0.099 S 
ATOM     14  C   UNL     1     -15.569   2.670 -15.562  0.00  0.00    +0.045 A 
ATOM     15  C   UNL     1     -16.764   2.588 -14.886  0.00  0.00    +0.008 A 
ATOM     16  C   UNL     1     -16.825   3.508 -13.800  0.00  0.00    +0.014 A 
ENDBRANCH  10  12
TORSDOF 1
ENDMDL
MODEL 6
REMARK VINA RESULT:      -5.0      2.325      4.461
REMARK  Name = min_compound931.pdb
REMARK  1 active torsions:
REMARK  status: ('A' for Active; 'I' for Inactive)
REMARK    1  A    between atoms: _9  and  _13
REMARK                            x       y       z     vdW  Elec       q    Type
REMARK                         _______ _______ _______ _____ _____    ______ ____
ROOT
ATOM      1  C   UNL     1     -14.719   2.629 -21.748  0.00  0.00    +0.183 A 
ATOM      2  N   UNL     1     -13.788   1.704 -21.730  0.00  0.00    -0.148 NA
ATOM      3  N   UNL     1     -13.180   1.620 -20.493  0.00  0.00    -0.126 NA
ATOM      4  C   UNL     1     -13.660   2.480 -19.620  0.00  0.00    +0.191 A 
ATOM      5  N   UNL     1     -13.281   2.653 -18.292  0.00  0.00    -0.231 N 
ATOM      6  C   UNL     1     -12.264   1.838 -17.786  0.00  0.00    +0.232 C 
ATOM      7  C   UNL     1     -12.015   2.077 -16.311  0.00  0.00    +0.167 C 
ATOM      8  S   UNL     1     -13.357   3.102 -15.698  0.00  0.00    -0.123 S 
ATOM      9  O   UNL     1     -11.597   1.008 -18.394  0.00  0.00    -0.274 OA
ATOM     10  C   UNL     1     -13.838   3.610 -17.362  0.00  0.00    +0.178 C 
ATOM     11  S   UNL     1     -14.926   3.454 -20.265  0.00  0.00    -0.038 S 
ENDROOT
BRANCH  10  12
ATOM     12  C   UNL     1     -13.389   5.027 -17.639  0.00  0.00    +0.021 A 
ATOM     13  S   UNL     1     -14.485   6.356 -17.653  0.00  0.00    -0.099 S 
ATOM     14  C   UNL     1     -13.243   7.471 -18.012  0.00  0.00    +0.045 A 
ATOM     15  C   UNL     1     -12.016   6.860 -18.125  0.00  0.00    +0.008 A 
ATOM     16  C   UNL     1     -12.100   5.454 -17.914  0.00  0.00    +0.014 A 
ENDBRANCH  10  12
TORSDOF 1
ENDMDL
MODEL 7
REMARK VINA RESULT:      -5.0      2.699      4.353
REMARK  Name = min_compound931.pdb
REMARK  1 active torsions:
REMARK  status: ('A' for Active; 'I' for Inactive)
REMARK    1  A    between atoms: _9  and  _13
REMARK                            x       y       z     vdW  Elec       q    Type
REMARK                         _______ _______ _______ _____ _____    ______ ____
ROOT
ATOM      1  C   UNL     1     -11.777   1.027 -17.738  0.00  0.00    +0.183 A 
ATOM      2  N   UNL     1     -11.866   1.028 -16.429  0.00  0.00    -0.148 NA
ATOM      3  N   UNL     1     -12.681   2.047 -15.976  0.00  0.00    -0.126 NA
ATOM      4  C   UNL     1     -13.176   2.785 -16.946  0.00  0.00    +0.191 A 
ATOM      5  N   UNL     1     -14.033   3.875 -16.840  0.00  0.00    -0.231 N 
ATOM      6  C   UNL     1     -14.436   4.275 -15.562  0.00  0.00    +0.232 C 
ATOM      7  C   UNL     1     -15.430   5.417 -15.601  0.00  0.00    +0.167 C 
ATOM      8  S   UNL     1     -15.960   5.610 -17.306  0.00  0.00    -0.123 S 
ATOM      9  O   UNL     1     -14.072   3.815 -14.484  0.00  0.00    -0.274 OA
ATOM     10  C   UNL     1     -14.560   4.660 -17.934  0.00  0.00    +0.178 C 
ATOM     11  S   UNL     1     -12.681   2.256 -18.510  0.00  0.00    -0.038 S 
ENDROOT
BRANCH  10  12
ATOM     12  C   UNL     1     -13.526   5.576 -18.551  0.00  0.00    +0.021 A 
ATOM     13  S   UNL     1     -13.230   5.624 -20.246  0.00  0.00    -0.099 S 
ATOM     14  C   UNL     1     -12.025   6.821 -20.077  0.00  0.00    +0.045 A 
ATOM     15  C   UNL     1     -11.837   7.184 -18.763  0.00  0.00    +0.008 A 
ATOM     16  C   UNL     1     -12.698   6.465 -17.885  0.00  0.00    +0.014 A 
ENDBRANCH  10  12
TORSDOF 1
ENDMDL
MODEL 8
REMARK VINA RESULT:      -5.0     12.469     13.669
REMARK  Name = min_compound931.pdb
REMARK  1 active torsions:
REMARK  status: ('A' for Active; 'I' for Inactive)
REMARK    1  A    between atoms: _9  and  _13
REMARK                            x       y       z     vdW  Elec       q    Type
REMARK                         _______ _______ _______ _____ _____    ______ ____
ROOT
ATOM      1  C   UNL     1     -17.996   4.813  -4.480  0.00  0.00    +0.183 A 
ATOM      2  N   UNL     1     -16.911   5.220  -3.864  0.00  0.00    -0.148 NA
ATOM      3  N   UNL     1     -15.929   4.249  -3.870  0.00  0.00    -0.126 NA
ATOM      4  C   UNL     1     -16.299   3.142  -4.480  0.00  0.00    +0.191 A 
ATOM      5  N   UNL     1     -15.555   1.983  -4.672  0.00  0.00    -0.231 N 
ATOM      6  C   UNL     1     -14.253   1.943  -4.164  0.00  0.00    +0.232 C 
ATOM      7  C   UNL     1     -13.535   0.657  -4.519  0.00  0.00    +0.167 C 
ATOM      8  S   UNL     1     -14.534  -0.197  -5.743  0.00  0.00    -0.123 S 
ATOM      9  O   UNL     1     -13.684   2.799  -3.495  0.00  0.00    -0.274 OA
ATOM     10  C   UNL     1     -15.996   0.786  -5.354  0.00  0.00    +0.178 C 
ATOM     11  S   UNL     1     -17.898   3.229  -5.116  0.00  0.00    -0.038 S 
ENDROOT
BRANCH  10  12
ATOM     12  C   UNL     1     -16.983  -0.022  -4.541  0.00  0.00    +0.021 A 
ATOM     13  S   UNL     1     -18.414  -0.691  -5.225  0.00  0.00    -0.099 S 
ATOM     14  C   UNL     1     -18.891  -1.381  -3.738  0.00  0.00    +0.045 A 
ATOM     15  C   UNL     1     -17.993  -1.113  -2.732  0.00  0.00    +0.008 A 
ATOM     16  C   UNL     1     -16.897  -0.328  -3.192  0.00  0.00    +0.014 A 
ENDBRANCH  10  12
TORSDOF 1
ENDMDL
MODEL 9
REMARK VINA RESULT:      -4.9     10.186     11.705
REMARK  Name = min_compound931.pdb
REMARK  1 active torsions:
REMARK  status: ('A' for Active; 'I' for Inactive)
REMARK    1  A    between atoms: _9  and  _13
REMARK                            x       y       z     vdW  Elec       q    Type
REMARK                         _______ _______ _______ _____ _____    ______ ____
ROOT
ATOM      1  C   UNL     1     -17.606   5.829  -6.324  0.00  0.00    +0.183 A 
ATOM      2  N   UNL     1     -17.499   5.743  -7.629  0.00  0.00    -0.148 NA
ATOM      3  N   UNL     1     -17.308   4.438  -8.038  0.00  0.00    -0.126 NA
ATOM      4  C   UNL     1     -17.269   3.582  -7.038  0.00  0.00    +0.191 A 
ATOM      5  N   UNL     1     -17.102   2.202  -7.100  0.00  0.00    -0.231 N 
ATOM      6  C   UNL     1     -16.944   1.613  -8.358  0.00  0.00    +0.232 C 
ATOM      7  C   UNL     1     -16.857   0.103  -8.280  0.00  0.00    +0.167 C 
ATOM      8  S   UNL     1     -17.317  -0.377  -6.612  0.00  0.00    -0.123 S 
ATOM      9  O   UNL     1     -16.868   2.177  -9.445  0.00  0.00    -0.274 OA
ATOM     10  C   UNL     1     -17.070   1.294  -5.975  0.00  0.00    +0.178 C 
ATOM     11  S   UNL     1     -17.490   4.333  -5.504  0.00  0.00    -0.038 S 
ENDROOT
BRANCH  10  12
ATOM     12  C   UNL     1     -15.782   1.380  -5.187  0.00  0.00    +0.021 A 
ATOM     13  S   UNL     1     -14.277   0.829  -5.815  0.00  0.00    -0.099 S 
ATOM     14  C   UNL     1     -13.438   1.270  -4.395  0.00  0.00    +0.045 A 
ATOM     15  C   UNL     1     -14.273   1.823  -3.452  0.00  0.00    +0.008 A 
ATOM     16  C   UNL     1     -15.622   1.883  -3.906  0.00  0.00    +0.014 A 
ENDBRANCH  10  12
TORSDOF 1
ENDMDL
