MODEL 1
REMARK VINA RESULT:      -5.4      0.000      0.000
REMARK  Name = min_compound93.pdb
REMARK  6 active torsions:
REMARK  status: ('A' for Active; 'I' for Inactive)
REMARK    1  A    between atoms: _3  and  _7
REMARK    2  A    between atoms: _7  and  _9
REMARK    3  A    between atoms: _9  and  _10
REMARK    4  A    between atoms: _10  and  _11
REMARK    5  A    between atoms: _11  and  _12
REMARK    6  A    between atoms: _12  and  _13
REMARK                            x       y       z     vdW  Elec       q    Type
REMARK                         _______ _______ _______ _____ _____    ______ ____
ROOT
ATOM      1  C   UNL     1     -12.545   1.587 -18.213  0.00  0.00    +0.341 C 
ATOM      2  O   UNL     1     -12.580   1.714 -19.427  0.00  0.00    -0.245 OA
ENDROOT
BRANCH   1   7
ATOM      3  N   UNL     1     -11.065  -1.111 -16.026  0.00  0.00    -0.262 NA
ATOM      4  C   UNL     1      -9.753  -0.890 -16.255  0.00  0.00    +0.111 A 
ATOM      5  C   UNL     1      -9.275   0.108 -17.092  0.00  0.00    +0.020 A 
ATOM      6  C   UNL     1     -10.198   0.927 -17.737  0.00  0.00    +0.018 A 
ATOM      7  C   UNL     1     -11.564   0.730 -17.519  0.00  0.00    +0.077 A 
ATOM      8  C   UNL     1     -11.944  -0.295 -16.663  0.00  0.00    +0.125 A 
ENDBRANCH   1   7
BRANCH   1   9
ATOM      9  O   UNL     1     -13.350   2.210 -17.318  0.00  0.00    -0.461 OA
BRANCH   9  10
ATOM     10  C   UNL     1     -12.911   3.505 -16.877  0.00  0.00    +0.232 C 
BRANCH  10  11
ATOM     11  C   UNL     1     -12.348   3.436 -15.460  0.00  0.00    +0.041 C 
BRANCH  11  12
ATOM     12  C   UNL     1     -10.850   3.730 -15.441  0.00  0.00    -0.000 C 
ATOM     13  C   UNL     1     -10.417   4.509 -16.673  0.00  0.00    +0.004 C 
ENDBRANCH  11  12
ENDBRANCH  10  11
ENDBRANCH   9  10
ENDBRANCH   1   9
TORSDOF 5
ENDMDL
MODEL 2
REMARK VINA RESULT:      -5.2      2.188      3.060
REMARK  Name = min_compound93.pdb
REMARK  6 active torsions:
REMARK  status: ('A' for Active; 'I' for Inactive)
REMARK    1  A    between atoms: _3  and  _7
REMARK    2  A    between atoms: _7  and  _9
REMARK    3  A    between atoms: _9  and  _10
REMARK    4  A    between atoms: _10  and  _11
REMARK    5  A    between atoms: _11  and  _12
REMARK    6  A    between atoms: _12  and  _13
REMARK                            x       y       z     vdW  Elec       q    Type
REMARK                         _______ _______ _______ _____ _____    ______ ____
ROOT
ATOM      1  C   UNL     1     -11.687   3.139 -16.103  0.00  0.00    +0.341 C 
ATOM      2  O   UNL     1     -10.977   3.923 -15.493  0.00  0.00    -0.245 OA
ENDROOT
BRANCH   1   7
ATOM      3  N   UNL     1     -12.163  -0.561 -16.686  0.00  0.00    -0.262 NA
ATOM      4  C   UNL     1     -10.967  -1.012 -16.249  0.00  0.00    +0.111 A 
ATOM      5  C   UNL     1      -9.969  -0.188 -15.751  0.00  0.00    +0.020 A 
ATOM      6  C   UNL     1     -10.209   1.183 -15.701  0.00  0.00    +0.018 A 
ATOM      7  C   UNL     1     -11.437   1.684 -16.139  0.00  0.00    +0.077 A 
ATOM      8  C   UNL     1     -12.372   0.779 -16.621  0.00  0.00    +0.125 A 
ENDBRANCH   1   7
BRANCH   1   9
ATOM      9  O   UNL     1     -12.806   3.446 -16.802  0.00  0.00    -0.461 OA
BRANCH   9  10
ATOM     10  C   UNL     1     -13.712   4.360 -16.163  0.00  0.00    +0.232 C 
BRANCH  10  11
ATOM     11  C   UNL     1     -14.402   3.702 -14.971  0.00  0.00    +0.041 C 
BRANCH  11  12
ATOM     12  C   UNL     1     -15.409   2.647 -15.424  0.00  0.00    -0.000 C 
ATOM     13  C   UNL     1     -16.511   2.448 -14.397  0.00  0.00    +0.004 C 
ENDBRANCH  11  12
ENDBRANCH  10  11
ENDBRANCH   9  10
ENDBRANCH   1   9
TORSDOF 5
ENDMDL
MODEL 3
REMARK VINA RESULT:      -5.1      2.358      2.902
REMARK  Name = min_compound93.pdb
REMARK  6 active torsions:
REMARK  status: ('A' for Active; 'I' for Inactive)
REMARK    1  A    between atoms: _3  and  _7
REMARK    2  A    between atoms: _7  and  _9
REMARK    3  A    between atoms: _9  and  _10
REMARK    4  A    between atoms: _10  and  _11
REMARK    5  A    between atoms: _11  and  _12
REMARK    6  A    between atoms: _12  and  _13
REMARK                            x       y       z     vdW  Elec       q    Type
REMARK                         _______ _______ _______ _____ _____    ______ ____
ROOT
ATOM      1  C   UNL     1     -11.270   3.293 -16.048  0.00  0.00    +0.341 C 
ATOM      2  O   UNL     1     -10.479   3.935 -15.376  0.00  0.00    -0.245 OA
ENDROOT
BRANCH   1   7
ATOM      3  N   UNL     1     -12.250  -0.263 -16.854  0.00  0.00    -0.262 NA
ATOM      4  C   UNL     1     -11.166  -0.909 -16.370  0.00  0.00    +0.111 A 
ATOM      5  C   UNL     1     -10.093  -0.268 -15.771  0.00  0.00    +0.020 A 
ATOM      6  C   UNL     1     -10.129   1.120 -15.663  0.00  0.00    +0.018 A 
ATOM      7  C   UNL     1     -11.236   1.821 -16.147  0.00  0.00    +0.077 A 
ATOM      8  C   UNL     1     -12.262   1.089 -16.731  0.00  0.00    +0.125 A 
ENDBRANCH   1   7
BRANCH   1   9
ATOM      9  O   UNL     1     -12.300   3.795 -16.771  0.00  0.00    -0.461 OA
BRANCH   9  10
ATOM     10  C   UNL     1     -11.942   4.699 -17.828  0.00  0.00    +0.232 C 
BRANCH  10  11
ATOM     11  C   UNL     1     -12.522   6.089 -17.577  0.00  0.00    +0.041 C 
BRANCH  11  12
ATOM     12  C   UNL     1     -11.914   7.124 -18.521  0.00  0.00    -0.000 C 
ATOM     13  C   UNL     1     -11.769   6.578 -19.932  0.00  0.00    +0.004 C 
ENDBRANCH  11  12
ENDBRANCH  10  11
ENDBRANCH   9  10
ENDBRANCH   1   9
TORSDOF 5
ENDMDL
MODEL 4
REMARK VINA RESULT:      -5.0     12.203     13.582
REMARK  Name = min_compound93.pdb
REMARK  6 active torsions:
REMARK  status: ('A' for Active; 'I' for Inactive)
REMARK    1  A    between atoms: _3  and  _7
REMARK    2  A    between atoms: _7  and  _9
REMARK    3  A    between atoms: _9  and  _10
REMARK    4  A    between atoms: _10  and  _11
REMARK    5  A    between atoms: _11  and  _12
REMARK    6  A    between atoms: _12  and  _13
REMARK                            x       y       z     vdW  Elec       q    Type
REMARK                         _______ _______ _______ _____ _____    ______ ____
ROOT
ATOM      1  C   UNL     1     -16.868   0.097  -3.715  0.00  0.00    +0.341 C 
ATOM      2  O   UNL     1     -17.813   0.216  -2.950  0.00  0.00    -0.245 OA
ENDROOT
BRANCH   1   7
ATOM      3  N   UNL     1     -14.656   3.153  -3.875  0.00  0.00    -0.262 NA
ATOM      4  C   UNL     1     -13.475   2.592  -3.536  0.00  0.00    +0.111 A 
ATOM      5  C   UNL     1     -13.317   1.244  -3.251  0.00  0.00    +0.020 A 
ATOM      6  C   UNL     1     -14.438   0.420  -3.312  0.00  0.00    +0.018 A 
ATOM      7  C   UNL     1     -15.675   0.965  -3.665  0.00  0.00    +0.077 A 
ATOM      8  C   UNL     1     -15.732   2.326  -3.932  0.00  0.00    +0.125 A 
ENDBRANCH   1   7
BRANCH   1   9
ATOM      9  O   UNL     1     -16.736  -0.836  -4.688  0.00  0.00    -0.461 OA
BRANCH   9  10
ATOM     10  C   UNL     1     -17.166  -0.438  -6.000  0.00  0.00    +0.232 C 
BRANCH  10  11
ATOM     11  C   UNL     1     -16.232  -0.994  -7.072  0.00  0.00    +0.041 C 
BRANCH  11  12
ATOM     12  C   UNL     1     -14.767  -0.752  -6.714  0.00  0.00    -0.000 C 
ATOM     13  C   UNL     1     -14.340   0.671  -7.037  0.00  0.00    +0.004 C 
ENDBRANCH  11  12
ENDBRANCH  10  11
ENDBRANCH   9  10
ENDBRANCH   1   9
TORSDOF 5
ENDMDL
MODEL 5
REMARK VINA RESULT:      -4.9      1.715      2.070
REMARK  Name = min_compound93.pdb
REMARK  6 active torsions:
REMARK  status: ('A' for Active; 'I' for Inactive)
REMARK    1  A    between atoms: _3  and  _7
REMARK    2  A    between atoms: _7  and  _9
REMARK    3  A    between atoms: _9  and  _10
REMARK    4  A    between atoms: _10  and  _11
REMARK    5  A    between atoms: _11  and  _12
REMARK    6  A    between atoms: _12  and  _13
REMARK                            x       y       z     vdW  Elec       q    Type
REMARK                         _______ _______ _______ _____ _____    ______ ____
ROOT
ATOM      1  C   UNL     1     -12.431   2.088 -17.680  0.00  0.00    +0.341 C 
ATOM      2  O   UNL     1     -12.866   1.951 -18.812  0.00  0.00    -0.245 OA
ENDROOT
BRANCH   1   7
ATOM      3  N   UNL     1      -9.921   0.611 -15.277  0.00  0.00    -0.262 NA
ATOM      4  C   UNL     1      -9.615  -0.524 -15.944  0.00  0.00    +0.111 A 
ATOM      5  C   UNL     1     -10.170  -0.872 -17.166  0.00  0.00    +0.020 A 
ATOM      6  C   UNL     1     -11.098  -0.007 -17.740  0.00  0.00    +0.018 A 
ATOM      7  C   UNL     1     -11.435   1.178 -17.082  0.00  0.00    +0.077 A 
ATOM      8  C   UNL     1     -10.826   1.438 -15.862  0.00  0.00    +0.125 A 
ENDBRANCH   1   7
BRANCH   1   9
ATOM      9  O   UNL     1     -12.749   3.081 -16.814  0.00  0.00    -0.461 OA
BRANCH   9  10
ATOM     10  C   UNL     1     -12.943   4.380 -17.394  0.00  0.00    +0.232 C 
BRANCH  10  11
ATOM     11  C   UNL     1     -11.638   5.174 -17.405  0.00  0.00    +0.041 C 
BRANCH  11  12
ATOM     12  C   UNL     1     -11.864   6.610 -17.872  0.00  0.00    -0.000 C 
ATOM     13  C   UNL     1     -13.320   7.022 -17.732  0.00  0.00    +0.004 C 
ENDBRANCH  11  12
ENDBRANCH  10  11
ENDBRANCH   9  10
ENDBRANCH   1   9
TORSDOF 5
ENDMDL
MODEL 6
REMARK VINA RESULT:      -4.8     11.800     13.197
REMARK  Name = min_compound93.pdb
REMARK  6 active torsions:
REMARK  status: ('A' for Active; 'I' for Inactive)
REMARK    1  A    between atoms: _3  and  _7
REMARK    2  A    between atoms: _7  and  _9
REMARK    3  A    between atoms: _9  and  _10
REMARK    4  A    between atoms: _10  and  _11
REMARK    5  A    between atoms: _11  and  _12
REMARK    6  A    between atoms: _12  and  _13
REMARK                            x       y       z     vdW  Elec       q    Type
REMARK                         _______ _______ _______ _____ _____    ______ ____
ROOT
ATOM      1  C   UNL     1     -16.278   3.337  -4.309  0.00  0.00    +0.341 C 
ATOM      2  O   UNL     1     -16.084   4.476  -3.914  0.00  0.00    -0.245 OA
ENDROOT
BRANCH   1   7
ATOM      3  N   UNL     1     -15.324  -0.145  -3.203  0.00  0.00    -0.262 NA
ATOM      4  C   UNL     1     -13.989   0.019  -3.075  0.00  0.00    +0.111 A 
ATOM      5  C   UNL     1     -13.334   1.216  -3.321  0.00  0.00    +0.020 A 
ATOM      6  C   UNL     1     -14.091   2.313  -3.726  0.00  0.00    +0.018 A 
ATOM      7  C   UNL     1     -15.475   2.181  -3.864  0.00  0.00    +0.077 A 
ATOM      8  C   UNL     1     -16.039   0.941  -3.595  0.00  0.00    +0.125 A 
ENDBRANCH   1   7
BRANCH   1   9
ATOM      9  O   UNL     1     -17.246   2.940  -5.170  0.00  0.00    -0.461 OA
BRANCH   9  10
ATOM     10  C   UNL     1     -16.833   2.747  -6.532  0.00  0.00    +0.232 C 
BRANCH  10  11
ATOM     11  C   UNL     1     -17.305   1.394  -7.058  0.00  0.00    +0.041 C 
BRANCH  11  12
ATOM     12  C   UNL     1     -16.147   0.594  -7.652  0.00  0.00    -0.000 C 
ATOM     13  C   UNL     1     -14.801   1.166  -7.238  0.00  0.00    +0.004 C 
ENDBRANCH  11  12
ENDBRANCH  10  11
ENDBRANCH   9  10
ENDBRANCH   1   9
TORSDOF 5
ENDMDL
MODEL 7
REMARK VINA RESULT:      -4.6      2.938      5.078
REMARK  Name = min_compound93.pdb
REMARK  6 active torsions:
REMARK  status: ('A' for Active; 'I' for Inactive)
REMARK    1  A    between atoms: _3  and  _7
REMARK    2  A    between atoms: _7  and  _9
REMARK    3  A    between atoms: _9  and  _10
REMARK    4  A    between atoms: _10  and  _11
REMARK    5  A    between atoms: _11  and  _12
REMARK    6  A    between atoms: _12  and  _13
REMARK                            x       y       z     vdW  Elec       q    Type
REMARK                         _______ _______ _______ _____ _____    ______ ____
ROOT
ATOM      1  C   UNL     1     -13.622   2.329 -16.856  0.00  0.00    +0.341 C 
ATOM      2  O   UNL     1     -13.677   2.834 -17.966  0.00  0.00    -0.245 OA
ENDROOT
BRANCH   1   7
ATOM      3  N   UNL     1     -14.879   4.314 -13.901  0.00  0.00    -0.262 NA
ATOM      4  C   UNL     1     -16.018   3.635 -13.644  0.00  0.00    +0.111 A 
ATOM      5  C   UNL     1     -16.439   2.533 -14.372  0.00  0.00    +0.020 A 
ATOM      6  C   UNL     1     -15.645   2.100 -15.432  0.00  0.00    +0.018 A 
ATOM      7  C   UNL     1     -14.457   2.775 -15.723  0.00  0.00    +0.077 A 
ATOM      8  C   UNL     1     -14.122   3.868 -14.936  0.00  0.00    +0.125 A 
ENDBRANCH   1   7
BRANCH   1   9
ATOM      9  O   UNL     1     -12.838   1.287 -16.487  0.00  0.00    -0.461 OA
BRANCH   9  10
ATOM     10  C   UNL     1     -11.455   1.596 -16.254  0.00  0.00    +0.232 C 
BRANCH  10  11
ATOM     11  C   UNL     1     -10.584   1.107 -17.408  0.00  0.00    +0.041 C 
BRANCH  11  12
ATOM     12  C   UNL     1     -10.348  -0.400 -17.328  0.00  0.00    -0.000 C 
ATOM     13  C   UNL     1      -9.581  -0.780 -16.072  0.00  0.00    +0.004 C 
ENDBRANCH  11  12
ENDBRANCH  10  11
ENDBRANCH   9  10
ENDBRANCH   1   9
TORSDOF 5
ENDMDL
MODEL 8
REMARK VINA RESULT:      -4.5     10.830     12.227
REMARK  Name = min_compound93.pdb
REMARK  6 active torsions:
REMARK  status: ('A' for Active; 'I' for Inactive)
REMARK    1  A    between atoms: _3  and  _7
REMARK    2  A    between atoms: _7  and  _9
REMARK    3  A    between atoms: _9  and  _10
REMARK    4  A    between atoms: _10  and  _11
REMARK    5  A    between atoms: _11  and  _12
REMARK    6  A    between atoms: _12  and  _13
REMARK                            x       y       z     vdW  Elec       q    Type
REMARK                         _______ _______ _______ _____ _____    ______ ____
ROOT
ATOM      1  C   UNL     1     -15.039   0.064  -6.500  0.00  0.00    +0.341 C 
ATOM      2  O   UNL     1     -13.875   0.105  -6.864  0.00  0.00    -0.245 OA
ENDROOT
BRANCH   1   7
ATOM      3  N   UNL     1     -16.932   2.506  -8.671  0.00  0.00    -0.262 NA
ATOM      4  C   UNL     1     -18.160   1.944  -8.620  0.00  0.00    +0.111 A 
ATOM      5  C   UNL     1     -18.450   0.791  -7.907  0.00  0.00    +0.020 A 
ATOM      6  C   UNL     1     -17.419   0.172  -7.205  0.00  0.00    +0.018 A 
ATOM      7  C   UNL     1     -16.137   0.727  -7.230  0.00  0.00    +0.077 A 
ATOM      8  C   UNL     1     -15.946   1.884  -7.974  0.00  0.00    +0.125 A 
ENDBRANCH   1   7
BRANCH   1   9
ATOM      9  O   UNL     1     -15.519  -0.599  -5.419  0.00  0.00    -0.461 OA
BRANCH   9  10
ATOM     10  C   UNL     1     -14.560  -0.904  -4.395  0.00  0.00    +0.232 C 
BRANCH  10  11
ATOM     11  C   UNL     1     -14.615   0.128  -3.271  0.00  0.00    +0.041 C 
BRANCH  11  12
ATOM     12  C   UNL     1     -13.379   1.024  -3.278  0.00  0.00    -0.000 C 
ATOM     13  C   UNL     1     -13.717   2.441  -3.716  0.00  0.00    +0.004 C 
ENDBRANCH  11  12
ENDBRANCH  10  11
ENDBRANCH   9  10
ENDBRANCH   1   9
TORSDOF 5
ENDMDL
MODEL 9
REMARK VINA RESULT:      -4.5      3.028      5.434
REMARK  Name = min_compound93.pdb
REMARK  6 active torsions:
REMARK  status: ('A' for Active; 'I' for Inactive)
REMARK    1  A    between atoms: _3  and  _7
REMARK    2  A    between atoms: _7  and  _9
REMARK    3  A    between atoms: _9  and  _10
REMARK    4  A    between atoms: _10  and  _11
REMARK    5  A    between atoms: _11  and  _12
REMARK    6  A    between atoms: _12  and  _13
REMARK                            x       y       z     vdW  Elec       q    Type
REMARK                         _______ _______ _______ _____ _____    ______ ____
ROOT
ATOM      1  C   UNL     1     -12.189   3.505 -16.471  0.00  0.00    +0.341 C 
ATOM      2  O   UNL     1     -12.799   2.957 -15.567  0.00  0.00    -0.245 OA
ENDROOT
BRANCH   1   7
ATOM      3  N   UNL     1     -14.236   6.534 -17.416  0.00  0.00    -0.262 NA
ATOM      4  C   UNL     1     -13.272   7.284 -17.994  0.00  0.00    +0.111 A 
ATOM      5  C   UNL     1     -11.952   6.878 -18.119  0.00  0.00    +0.020 A 
ATOM      6  C   UNL     1     -11.596   5.628 -17.617  0.00  0.00    +0.018 A 
ATOM      7  C   UNL     1     -12.568   4.823 -17.017  0.00  0.00    +0.077 A 
ATOM      8  C   UNL     1     -13.862   5.318 -16.940  0.00  0.00    +0.125 A 
ENDBRANCH   1   7
BRANCH   1   9
ATOM      9  O   UNL     1     -11.079   3.035 -17.090  0.00  0.00    -0.461 OA
BRANCH   9  10
ATOM     10  C   UNL     1     -11.116   1.652 -17.477  0.00  0.00    +0.232 C 
BRANCH  10  11
ATOM     11  C   UNL     1      -9.715   1.046 -17.471  0.00  0.00    +0.041 C 
BRANCH  11  12
ATOM     12  C   UNL     1      -9.666  -0.234 -16.640  0.00  0.00    -0.000 C 
ATOM     13  C   UNL     1     -11.060  -0.765 -16.347  0.00  0.00    +0.004 C 
ENDBRANCH  11  12
ENDBRANCH  10  11
ENDBRANCH   9  10
ENDBRANCH   1   9
TORSDOF 5
ENDMDL
