MODEL 1
REMARK VINA RESULT:      -6.8      0.000      0.000
REMARK  Name = min_compound973.pdb
REMARK  5 active torsions:
REMARK  status: ('A' for Active; 'I' for Inactive)
REMARK    1  A    between atoms: _1  and  _2
REMARK    2  A    between atoms: _1  and  _12
REMARK    3  A    between atoms: _2  and  _13
REMARK    4  A    between atoms: _11  and  _19
REMARK    5  A    between atoms: _18  and  _20
REMARK                            x       y       z     vdW  Elec       q    Type
REMARK                         _______ _______ _______ _____ _____    ______ ____
ROOT
ATOM      1  C   UNL     1     -12.519   2.609 -16.744  0.00  0.00    +0.115 A 
ATOM      2  C   UNL     1     -11.398   3.399 -17.070  0.00  0.00    +0.141 A 
ATOM      3  C   UNL     1     -10.146   2.833 -17.318  0.00  0.00    +0.049 A 
ATOM      4  C   UNL     1      -9.960   1.448 -17.239  0.00  0.00    +0.033 A 
ATOM      5  C   UNL     1     -11.077   0.683 -16.893  0.00  0.00    +0.088 A 
ATOM      6  N   UNL     1     -11.268  -0.661 -16.721  0.00  0.00    -0.257 N 
ATOM      7  N   UNL     1     -12.531  -0.949 -16.377  0.00  0.00    -0.067 NA
ATOM      8  N   UNL     1     -13.202   0.196 -16.326  0.00  0.00    -0.128 NA
ATOM      9  H   UNL     1     -10.604  -1.418 -16.817  0.00  0.00    +0.191 HD
ATOM     10  C   UNL     1     -12.339   1.218 -16.641  0.00  0.00    +0.138 A 
ENDROOT
BRANCH   1  11
ATOM     11  N   UNL     1     -13.780   3.172 -16.499  0.00  0.00    -0.261 N 
ATOM     12  H   UNL     1     -14.600   2.976 -17.008  0.00  0.00    +0.170 HD
BRANCH  11  13
ATOM     13  N   UNL     1     -13.700   3.963 -15.533  0.00  0.00    -0.266 N 
ATOM     14  H   UNL     1     -12.985   4.630 -15.412  0.00  0.00    +0.170 HD
BRANCH  13  15
ATOM     15  C   UNL     1     -14.772   3.767 -14.644  0.00  0.00    +0.044 A 
ATOM     16  C   UNL     1     -15.769   2.805 -14.836  0.00  0.00    +0.025 A 
ATOM     17  C   UNL     1     -16.774   2.625 -13.879  0.00  0.00    +0.005 A 
ATOM     18  C   UNL     1     -16.808   3.421 -12.726  0.00  0.00    -0.050 A 
ATOM     19  C   UNL     1     -17.834   3.187 -11.658  0.00  0.00    +0.044 C 
ATOM     20  C   UNL     1     -15.824   4.398 -12.544  0.00  0.00    +0.005 A 
ATOM     21  C   UNL     1     -14.823   4.572 -13.501  0.00  0.00    +0.025 A 
ENDBRANCH  13  15
ENDBRANCH  11  13
ENDBRANCH   1  11
BRANCH   2  22
ATOM     22  O   UNL     1     -11.553   4.760 -17.150  0.00  0.00    -0.505 OA
ATOM     23  H   UNL     1     -12.468   4.971 -17.392  0.00  0.00    +0.292 HD
ENDBRANCH   2  22
TORSDOF 4
ENDMDL
MODEL 2
REMARK VINA RESULT:      -6.8     12.779     14.559
REMARK  Name = min_compound973.pdb
REMARK  5 active torsions:
REMARK  status: ('A' for Active; 'I' for Inactive)
REMARK    1  A    between atoms: _1  and  _2
REMARK    2  A    between atoms: _1  and  _12
REMARK    3  A    between atoms: _2  and  _13
REMARK    4  A    between atoms: _11  and  _19
REMARK    5  A    between atoms: _18  and  _20
REMARK                            x       y       z     vdW  Elec       q    Type
REMARK                         _______ _______ _______ _____ _____    ______ ____
ROOT
ATOM      1  C   UNL     1     -14.642  -3.508  -1.678  0.00  0.00    +0.115 A 
ATOM      2  C   UNL     1     -13.467  -4.243  -1.418  0.00  0.00    +0.141 A 
ATOM      3  C   UNL     1     -13.428  -5.633  -1.536  0.00  0.00    +0.049 A 
ATOM      4  C   UNL     1     -14.571  -6.350  -1.909  0.00  0.00    +0.033 A 
ATOM      5  C   UNL     1     -15.731  -5.608  -2.141  0.00  0.00    +0.088 A 
ATOM      6  N   UNL     1     -17.002  -5.957  -2.507  0.00  0.00    -0.257 N 
ATOM      7  N   UNL     1     -17.807  -4.890  -2.608  0.00  0.00    -0.067 NA
ATOM      8  N   UNL     1     -17.082  -3.815  -2.320  0.00  0.00    -0.128 NA
ATOM      9  H   UNL     1     -17.382  -6.874  -2.699  0.00  0.00    +0.191 HD
ATOM     10  C   UNL     1     -15.801  -4.220  -2.032  0.00  0.00    +0.138 A 
ENDROOT
BRANCH   1  11
ATOM     11  N   UNL     1     -14.685  -2.110  -1.567  0.00  0.00    -0.261 N 
ATOM     12  H   UNL     1     -15.189  -1.609  -0.886  0.00  0.00    +0.170 HD
BRANCH  11  13
ATOM     13  N   UNL     1     -13.982  -1.601  -2.468  0.00  0.00    -0.266 N 
ATOM     14  H   UNL     1     -13.135  -1.978  -2.800  0.00  0.00    +0.170 HD
BRANCH  13  15
ATOM     15  C   UNL     1     -14.571  -0.414  -2.941  0.00  0.00    +0.044 A 
ATOM     16  C   UNL     1     -15.945  -0.264  -3.153  0.00  0.00    +0.025 A 
ATOM     17  C   UNL     1     -16.467   0.966  -3.569  0.00  0.00    +0.005 A 
ATOM     18  C   UNL     1     -15.620   2.057  -3.798  0.00  0.00    -0.050 A 
ATOM     19  C   UNL     1     -16.175   3.400  -4.169  0.00  0.00    +0.044 C 
ATOM     20  C   UNL     1     -14.243   1.901  -3.607  0.00  0.00    +0.005 A 
ATOM     21  C   UNL     1     -13.727   0.674  -3.191  0.00  0.00    +0.025 A 
ENDBRANCH  13  15
ENDBRANCH  11  13
ENDBRANCH   1  11
BRANCH   2  22
ATOM     22  O   UNL     1     -12.334  -3.563  -1.048  0.00  0.00    -0.505 OA
ATOM     23  H   UNL     1     -11.803  -4.111  -0.450  0.00  0.00    +0.292 HD
ENDBRANCH   2  22
TORSDOF 4
ENDMDL
MODEL 3
REMARK VINA RESULT:      -6.8      3.367      5.940
REMARK  Name = min_compound973.pdb
REMARK  5 active torsions:
REMARK  status: ('A' for Active; 'I' for Inactive)
REMARK    1  A    between atoms: _1  and  _2
REMARK    2  A    between atoms: _1  and  _12
REMARK    3  A    between atoms: _2  and  _13
REMARK    4  A    between atoms: _11  and  _19
REMARK    5  A    between atoms: _18  and  _20
REMARK                            x       y       z     vdW  Elec       q    Type
REMARK                         _______ _______ _______ _____ _____    ______ ____
ROOT
ATOM      1  C   UNL     1     -12.956   5.574 -17.210  0.00  0.00    +0.115 A 
ATOM      2  C   UNL     1     -12.847   6.892 -17.698  0.00  0.00    +0.141 A 
ATOM      3  C   UNL     1     -13.908   7.796 -17.621  0.00  0.00    +0.049 A 
ATOM      4  C   UNL     1     -15.132   7.413 -17.060  0.00  0.00    +0.033 A 
ATOM      5  C   UNL     1     -15.229   6.097 -16.602  0.00  0.00    +0.088 A 
ATOM      6  N   UNL     1     -16.241   5.387 -16.016  0.00  0.00    -0.257 N 
ATOM      7  N   UNL     1     -15.879   4.126 -15.745  0.00  0.00    -0.067 NA
ATOM      8  N   UNL     1     -14.619   3.979 -16.137  0.00  0.00    -0.128 NA
ATOM      9  H   UNL     1     -17.177   5.688 -15.778  0.00  0.00    +0.191 HD
ATOM     10  C   UNL     1     -14.188   5.173 -16.665  0.00  0.00    +0.138 A 
ENDROOT
BRANCH   1  11
ATOM     11  N   UNL     1     -11.891   4.664 -17.281  0.00  0.00    -0.261 N 
ATOM     12  H   UNL     1     -11.013   4.781 -16.851  0.00  0.00    +0.170 HD
BRANCH  11  13
ATOM     13  N   UNL     1     -12.231   3.681 -17.977  0.00  0.00    -0.266 N 
ATOM     14  H   UNL     1     -12.813   3.730 -18.769  0.00  0.00    +0.170 HD
BRANCH  13  15
ATOM     15  C   UNL     1     -11.665   2.498 -17.469  0.00  0.00    +0.044 A 
ATOM     16  C   UNL     1     -11.712   1.270 -18.137  0.00  0.00    +0.025 A 
ATOM     17  C   UNL     1     -11.075   0.146 -17.599  0.00  0.00    +0.005 A 
ATOM     18  C   UNL     1     -10.399   0.230 -16.375  0.00  0.00    -0.050 A 
ATOM     19  C   UNL     1      -9.649  -0.946 -15.826  0.00  0.00    +0.044 C 
ATOM     20  C   UNL     1     -10.370   1.452 -15.696  0.00  0.00    +0.005 A 
ATOM     21  C   UNL     1     -11.006   2.570 -16.237  0.00  0.00    +0.025 A 
ENDBRANCH  13  15
ENDBRANCH  11  13
ENDBRANCH   1  11
BRANCH   2  22
ATOM     22  O   UNL     1     -11.658   7.291 -18.255  0.00  0.00    -0.505 OA
ATOM     23  H   UNL     1     -11.685   8.243 -18.440  0.00  0.00    +0.292 HD
ENDBRANCH   2  22
TORSDOF 4
ENDMDL
MODEL 4
REMARK VINA RESULT:      -6.8      2.000      2.680
REMARK  Name = min_compound973.pdb
REMARK  5 active torsions:
REMARK  status: ('A' for Active; 'I' for Inactive)
REMARK    1  A    between atoms: _1  and  _2
REMARK    2  A    between atoms: _1  and  _12
REMARK    3  A    between atoms: _2  and  _13
REMARK    4  A    between atoms: _11  and  _19
REMARK    5  A    between atoms: _18  and  _20
REMARK                            x       y       z     vdW  Elec       q    Type
REMARK                         _______ _______ _______ _____ _____    ______ ____
ROOT
ATOM      1  C   UNL     1     -12.758   1.293 -16.522  0.00  0.00    +0.115 A 
ATOM      2  C   UNL     1     -12.248  -0.022 -16.537  0.00  0.00    +0.141 A 
ATOM      3  C   UNL     1     -10.901  -0.285 -16.788  0.00  0.00    +0.049 A 
ATOM      4  C   UNL     1     -10.006   0.759 -17.048  0.00  0.00    +0.033 A 
ATOM      5  C   UNL     1     -10.533   2.053 -17.050  0.00  0.00    +0.088 A 
ATOM      6  N   UNL     1      -9.977   3.285 -17.263  0.00  0.00    -0.257 N 
ATOM      7  N   UNL     1     -10.883   4.268 -17.171  0.00  0.00    -0.067 NA
ATOM      8  N   UNL     1     -12.053   3.707 -16.887  0.00  0.00    -0.128 NA
ATOM      9  H   UNL     1      -9.016   3.525 -17.469  0.00  0.00    +0.191 HD
ATOM     10  C   UNL     1     -11.872   2.347 -16.802  0.00  0.00    +0.138 A 
ENDROOT
BRANCH   1  11
ATOM     11  N   UNL     1     -14.110   1.563 -16.264  0.00  0.00    -0.261 N 
ATOM     12  H   UNL     1     -14.825   0.888 -16.210  0.00  0.00    +0.170 HD
BRANCH  11  13
ATOM     13  N   UNL     1     -14.265   2.795 -16.114  0.00  0.00    -0.266 N 
ATOM     14  H   UNL     1     -13.863   3.486 -16.689  0.00  0.00    +0.170 HD
BRANCH  13  15
ATOM     15  C   UNL     1     -15.093   3.057 -15.007  0.00  0.00    +0.044 A 
ATOM     16  C   UNL     1     -16.282   2.366 -14.750  0.00  0.00    +0.025 A 
ATOM     17  C   UNL     1     -17.025   2.640 -13.596  0.00  0.00    +0.005 A 
ATOM     18  C   UNL     1     -16.600   3.623 -12.693  0.00  0.00    -0.050 A 
ATOM     19  C   UNL     1     -17.345   3.871 -11.416  0.00  0.00    +0.044 C 
ATOM     20  C   UNL     1     -15.423   4.329 -12.961  0.00  0.00    +0.005 A 
ATOM     21  C   UNL     1     -14.685   4.052 -14.112  0.00  0.00    +0.025 A 
ENDBRANCH  13  15
ENDBRANCH  11  13
ENDBRANCH   1  11
BRANCH   2  22
ATOM     22  O   UNL     1     -13.107  -1.063 -16.288  0.00  0.00    -0.505 OA
ATOM     23  H   UNL     1     -14.023  -0.748 -16.322  0.00  0.00    +0.292 HD
ENDBRANCH   2  22
TORSDOF 4
ENDMDL
MODEL 5
REMARK VINA RESULT:      -6.7      3.210      6.066
REMARK  Name = min_compound973.pdb
REMARK  5 active torsions:
REMARK  status: ('A' for Active; 'I' for Inactive)
REMARK    1  A    between atoms: _1  and  _2
REMARK    2  A    between atoms: _1  and  _12
REMARK    3  A    between atoms: _2  and  _13
REMARK    4  A    between atoms: _11  and  _19
REMARK    5  A    between atoms: _18  and  _20
REMARK                            x       y       z     vdW  Elec       q    Type
REMARK                         _______ _______ _______ _____ _____    ______ ____
ROOT
ATOM      1  C   UNL     1     -14.145   5.055 -16.475  0.00  0.00    +0.115 A 
ATOM      2  C   UNL     1     -15.101   5.858 -15.820  0.00  0.00    +0.141 A 
ATOM      3  C   UNL     1     -15.238   7.218 -16.102  0.00  0.00    +0.049 A 
ATOM      4  C   UNL     1     -14.412   7.837 -17.048  0.00  0.00    +0.033 A 
ATOM      5  C   UNL     1     -13.456   7.031 -17.671  0.00  0.00    +0.088 A 
ATOM      6  N   UNL     1     -12.500   7.282 -18.617  0.00  0.00    -0.257 N 
ATOM      7  N   UNL     1     -11.791   6.186 -18.918  0.00  0.00    -0.067 NA
ATOM      8  N   UNL     1     -12.270   5.187 -18.186  0.00  0.00    -0.128 NA
ATOM      9  H   UNL     1     -12.280   8.150 -19.088  0.00  0.00    +0.191 HD
ATOM     10  C   UNL     1     -13.297   5.671 -17.411  0.00  0.00    +0.138 A 
ENDROOT
BRANCH   1  11
ATOM     11  N   UNL     1     -14.008   3.687 -16.199  0.00  0.00    -0.261 N 
ATOM     12  H   UNL     1     -14.603   2.976 -16.532  0.00  0.00    +0.170 HD
BRANCH  11  13
ATOM     13  N   UNL     1     -13.012   3.510 -15.464  0.00  0.00    -0.266 N 
ATOM     14  H   UNL     1     -12.761   4.092 -14.710  0.00  0.00    +0.170 HD
BRANCH  13  15
ATOM     15  C   UNL     1     -12.299   2.365 -15.864  0.00  0.00    +0.044 A 
ATOM     16  C   UNL     1     -12.828   1.381 -16.704  0.00  0.00    +0.025 A 
ATOM     17  C   UNL     1     -12.040   0.298 -17.110  0.00  0.00    +0.005 A 
ATOM     18  C   UNL     1     -10.718   0.173 -16.663  0.00  0.00    -0.050 A 
ATOM     19  C   UNL     1      -9.841  -0.940 -17.151  0.00  0.00    +0.044 C 
ATOM     20  C   UNL     1     -10.196   1.147 -15.806  0.00  0.00    +0.005 A 
ATOM     21  C   UNL     1     -10.985   2.225 -15.405  0.00  0.00    +0.025 A 
ENDBRANCH  13  15
ENDBRANCH  11  13
ENDBRANCH   1  11
BRANCH   2  22
ATOM     22  O   UNL     1     -15.921   5.275 -14.886  0.00  0.00    -0.505 OA
ATOM     23  H   UNL     1     -16.700   4.898 -15.324  0.00  0.00    +0.292 HD
ENDBRANCH   2  22
TORSDOF 4
ENDMDL
MODEL 6
REMARK VINA RESULT:      -6.6      2.443      6.405
REMARK  Name = min_compound973.pdb
REMARK  5 active torsions:
REMARK  status: ('A' for Active; 'I' for Inactive)
REMARK    1  A    between atoms: _1  and  _2
REMARK    2  A    between atoms: _1  and  _12
REMARK    3  A    between atoms: _2  and  _13
REMARK    4  A    between atoms: _11  and  _19
REMARK    5  A    between atoms: _18  and  _20
REMARK                            x       y       z     vdW  Elec       q    Type
REMARK                         _______ _______ _______ _____ _____    ______ ____
ROOT
ATOM      1  C   UNL     1     -15.251   3.625 -15.623  0.00  0.00    +0.115 A 
ATOM      2  C   UNL     1     -15.886   2.530 -15.002  0.00  0.00    +0.141 A 
ATOM      3  C   UNL     1     -16.788   2.702 -13.951  0.00  0.00    +0.049 A 
ATOM      4  C   UNL     1     -17.085   3.982 -13.467  0.00  0.00    +0.033 A 
ATOM      5  C   UNL     1     -16.430   5.053 -14.080  0.00  0.00    +0.088 A 
ATOM      6  N   UNL     1     -16.466   6.405 -13.877  0.00  0.00    -0.257 N 
ATOM      7  N   UNL     1     -15.649   7.061 -14.713  0.00  0.00    -0.067 NA
ATOM      8  N   UNL     1     -15.066   6.157 -15.492  0.00  0.00    -0.128 NA
ATOM      9  H   UNL     1     -17.006   6.936 -13.207  0.00  0.00    +0.191 HD
ATOM     10  C   UNL     1     -15.526   4.913 -15.131  0.00  0.00    +0.138 A 
ENDROOT
BRANCH   1  11
ATOM     11  N   UNL     1     -14.349   3.458 -16.684  0.00  0.00    -0.261 N 
ATOM     12  H   UNL     1     -14.589   3.181 -17.598  0.00  0.00    +0.170 HD
BRANCH  11  13
ATOM     13  N   UNL     1     -13.190   3.716 -16.287  0.00  0.00    -0.266 N 
ATOM     14  H   UNL     1     -12.883   4.603 -15.992  0.00  0.00    +0.170 HD
BRANCH  13  15
ATOM     15  C   UNL     1     -12.389   2.560 -16.320  0.00  0.00    +0.044 A 
ATOM     16  C   UNL     1     -12.639   1.471 -17.161  0.00  0.00    +0.025 A 
ATOM     17  C   UNL     1     -11.764   0.379 -17.183  0.00  0.00    +0.005 A 
ATOM     18  C   UNL     1     -10.637   0.353 -16.351  0.00  0.00    -0.050 A 
ATOM     19  C   UNL     1      -9.652  -0.775 -16.422  0.00  0.00    +0.044 C 
ATOM     20  C   UNL     1     -10.399   1.433 -15.495  0.00  0.00    +0.005 A 
ATOM     21  C   UNL     1     -11.273   2.519 -15.477  0.00  0.00    +0.025 A 
ENDBRANCH  13  15
ENDBRANCH  11  13
ENDBRANCH   1  11
BRANCH   2  22
ATOM     22  O   UNL     1     -15.609   1.265 -15.456  0.00  0.00    -0.505 OA
ATOM     23  H   UNL     1     -15.485   0.667 -14.703  0.00  0.00    +0.292 HD
ENDBRANCH   2  22
TORSDOF 4
ENDMDL
MODEL 7
REMARK VINA RESULT:      -6.6     11.494     13.398
REMARK  Name = min_compound973.pdb
REMARK  5 active torsions:
REMARK  status: ('A' for Active; 'I' for Inactive)
REMARK    1  A    between atoms: _1  and  _2
REMARK    2  A    between atoms: _1  and  _12
REMARK    3  A    between atoms: _2  and  _13
REMARK    4  A    between atoms: _11  and  _19
REMARK    5  A    between atoms: _18  and  _20
REMARK                            x       y       z     vdW  Elec       q    Type
REMARK                         _______ _______ _______ _____ _____    ______ ____
ROOT
ATOM      1  C   UNL     1     -14.664  -1.021  -5.170  0.00  0.00    +0.115 A 
ATOM      2  C   UNL     1     -15.190  -0.865  -6.468  0.00  0.00    +0.141 A 
ATOM      3  C   UNL     1     -15.216   0.376  -7.108  0.00  0.00    +0.049 A 
ATOM      4  C   UNL     1     -14.723   1.519  -6.467  0.00  0.00    +0.033 A 
ATOM      5  C   UNL     1     -14.226   1.349  -5.173  0.00  0.00    +0.088 A 
ATOM      6  N   UNL     1     -13.682   2.215  -4.263  0.00  0.00    -0.257 N 
ATOM      7  N   UNL     1     -13.343   1.597  -3.123  0.00  0.00    -0.067 NA
ATOM      8  N   UNL     1     -13.646   0.312  -3.260  0.00  0.00    -0.128 NA
ATOM      9  H   UNL     1     -13.517   3.209  -4.347  0.00  0.00    +0.191 HD
ATOM     10  C   UNL     1     -14.186   0.124  -4.509  0.00  0.00    +0.138 A 
ENDROOT
BRANCH   1  11
ATOM     11  N   UNL     1     -14.631  -2.266  -4.525  0.00  0.00    -0.261 N 
ATOM     12  H   UNL     1     -14.106  -3.046  -4.819  0.00  0.00    +0.170 HD
BRANCH  11  13
ATOM     13  N   UNL     1     -15.374  -2.232  -3.519  0.00  0.00    -0.266 N 
ATOM     14  H   UNL     1     -16.105  -1.587  -3.383  0.00  0.00    +0.170 HD
BRANCH  13  15
ATOM     15  C   UNL     1     -15.019  -3.243  -2.608  0.00  0.00    +0.044 A 
ATOM     16  C   UNL     1     -15.844  -4.329  -2.298  0.00  0.00    +0.025 A 
ATOM     17  C   UNL     1     -15.400  -5.330  -1.427  0.00  0.00    +0.005 A 
ATOM     18  C   UNL     1     -14.131  -5.249  -0.838  0.00  0.00    -0.050 A 
ATOM     19  C   UNL     1     -13.615  -6.353   0.035  0.00  0.00    +0.044 C 
ATOM     20  C   UNL     1     -13.314  -4.153  -1.132  0.00  0.00    +0.005 A 
ATOM     21  C   UNL     1     -13.761  -3.158  -2.002  0.00  0.00    +0.025 A 
ENDBRANCH  13  15
ENDBRANCH  11  13
ENDBRANCH   1  11
BRANCH   2  22
ATOM     22  O   UNL     1     -15.682  -1.970  -7.116  0.00  0.00    -0.505 OA
ATOM     23  H   UNL     1     -15.540  -1.880  -8.071  0.00  0.00    +0.292 HD
ENDBRANCH   2  22
TORSDOF 4
ENDMDL
MODEL 8
REMARK VINA RESULT:      -6.5     10.556     12.857
REMARK  Name = min_compound973.pdb
REMARK  5 active torsions:
REMARK  status: ('A' for Active; 'I' for Inactive)
REMARK    1  A    between atoms: _1  and  _2
REMARK    2  A    between atoms: _1  and  _12
REMARK    3  A    between atoms: _2  and  _13
REMARK    4  A    between atoms: _11  and  _19
REMARK    5  A    between atoms: _18  and  _20
REMARK                            x       y       z     vdW  Elec       q    Type
REMARK                         _______ _______ _______ _____ _____    ______ ____
ROOT
ATOM      1  C   UNL     1     -15.196  -1.618  -3.311  0.00  0.00    +0.115 A 
ATOM      2  C   UNL     1     -16.239  -0.762  -2.902  0.00  0.00    +0.141 A 
ATOM      3  C   UNL     1     -17.120  -1.112  -1.878  0.00  0.00    +0.049 A 
ATOM      4  C   UNL     1     -17.002  -2.344  -1.225  0.00  0.00    +0.033 A 
ATOM      5  C   UNL     1     -15.977  -3.189  -1.658  0.00  0.00    +0.088 A 
ATOM      6  N   UNL     1     -15.572  -4.437  -1.269  0.00  0.00    -0.257 N 
ATOM      7  N   UNL     1     -14.525  -4.871  -1.985  0.00  0.00    -0.067 NA
ATOM      8  N   UNL     1     -14.212  -3.916  -2.853  0.00  0.00    -0.128 NA
ATOM      9  H   UNL     1     -15.950  -5.035  -0.546  0.00  0.00    +0.191 HD
ATOM     10  C   UNL     1     -15.082  -2.868  -2.676  0.00  0.00    +0.138 A 
ENDROOT
BRANCH   1  11
ATOM     11  N   UNL     1     -14.305  -1.269  -4.336  0.00  0.00    -0.261 N 
ATOM     12  H   UNL     1     -13.526  -0.675  -4.235  0.00  0.00    +0.170 HD
BRANCH  11  13
ATOM     13  N   UNL     1     -14.654  -1.829  -5.398  0.00  0.00    -0.266 N 
ATOM     14  H   UNL     1     -14.620  -2.800  -5.558  0.00  0.00    +0.170 HD
BRANCH  13  15
ATOM     15  C   UNL     1     -15.102  -0.878  -6.334  0.00  0.00    +0.044 A 
ATOM     16  C   UNL     1     -16.240  -1.052  -7.128  0.00  0.00    +0.025 A 
ATOM     17  C   UNL     1     -16.660  -0.036  -7.995  0.00  0.00    +0.005 A 
ATOM     18  C   UNL     1     -15.935   1.158  -8.094  0.00  0.00    -0.050 A 
ATOM     19  C   UNL     1     -16.418   2.283  -8.961  0.00  0.00    +0.044 C 
ATOM     20  C   UNL     1     -14.786   1.324  -7.316  0.00  0.00    +0.005 A 
ATOM     21  C   UNL     1     -14.371   0.309  -6.452  0.00  0.00    +0.025 A 
ENDBRANCH  13  15
ENDBRANCH  11  13
ENDBRANCH   1  11
BRANCH   2  22
ATOM     22  O   UNL     1     -16.377   0.451  -3.529  0.00  0.00    -0.505 OA
ATOM     23  H   UNL     1     -15.565   0.664  -4.013  0.00  0.00    +0.292 HD
ENDBRANCH   2  22
TORSDOF 4
ENDMDL
MODEL 9
REMARK VINA RESULT:      -6.3      3.870      5.881
REMARK  Name = min_compound973.pdb
REMARK  5 active torsions:
REMARK  status: ('A' for Active; 'I' for Inactive)
REMARK    1  A    between atoms: _1  and  _2
REMARK    2  A    between atoms: _1  and  _12
REMARK    3  A    between atoms: _2  and  _13
REMARK    4  A    between atoms: _11  and  _19
REMARK    5  A    between atoms: _18  and  _20
REMARK                            x       y       z     vdW  Elec       q    Type
REMARK                         _______ _______ _______ _____ _____    ______ ____
ROOT
ATOM      1  C   UNL     1     -12.393   2.806 -17.590  0.00  0.00    +0.115 A 
ATOM      2  C   UNL     1     -12.104   4.182 -17.482  0.00  0.00    +0.141 A 
ATOM      3  C   UNL     1     -11.088   4.657 -16.650  0.00  0.00    +0.049 A 
ATOM      4  C   UNL     1     -10.324   3.772 -15.880  0.00  0.00    +0.033 A 
ATOM      5  C   UNL     1     -10.640   2.415 -15.984  0.00  0.00    +0.088 A 
ATOM      6  N   UNL     1     -10.126   1.292 -15.394  0.00  0.00    -0.257 N 
ATOM      7  N   UNL     1     -10.758   0.181 -15.795  0.00  0.00    -0.067 NA
ATOM      8  N   UNL     1     -11.694   0.545 -16.664  0.00  0.00    -0.128 NA
ATOM      9  H   UNL     1      -9.368   1.210 -14.730  0.00  0.00    +0.191 HD
ATOM     10  C   UNL     1     -11.646   1.911 -16.805  0.00  0.00    +0.138 A 
ENDROOT
BRANCH   1  11
ATOM     11  N   UNL     1     -13.409   2.324 -18.429  0.00  0.00    -0.261 N 
ATOM     12  H   UNL     1     -14.375   2.441 -18.279  0.00  0.00    +0.170 HD
BRANCH  11  13
ATOM     13  N   UNL     1     -12.895   1.721 -19.397  0.00  0.00    -0.266 N 
ATOM     14  H   UNL     1     -12.159   1.070 -19.327  0.00  0.00    +0.170 HD
BRANCH  13  15
ATOM     15  C   UNL     1     -13.515   2.101 -20.601  0.00  0.00    +0.044 A 
ATOM     16  C   UNL     1     -13.053   1.717 -21.864  0.00  0.00    +0.025 A 
ATOM     17  C   UNL     1     -13.755   2.084 -23.017  0.00  0.00    +0.005 A 
ATOM     18  C   UNL     1     -14.919   2.858 -22.925  0.00  0.00    -0.050 A 
ATOM     19  C   UNL     1     -15.722   3.192 -24.146  0.00  0.00    +0.044 C 
ATOM     20  C   UNL     1     -15.370   3.261 -21.664  0.00  0.00    +0.005 A 
ATOM     21  C   UNL     1     -14.667   2.891 -20.517  0.00  0.00    +0.025 A 
ENDBRANCH  13  15
ENDBRANCH  11  13
ENDBRANCH   1  11
BRANCH   2  22
ATOM     22  O   UNL     1     -12.841   5.070 -18.225  0.00  0.00    -0.505 OA
ATOM     23  H   UNL     1     -13.740   5.128 -17.868  0.00  0.00    +0.292 HD
ENDBRANCH   2  22
TORSDOF 4
ENDMDL
