MODEL 1
REMARK VINA RESULT:      -7.4      0.000      0.000
REMARK  Name = min_compound970.pdb
REMARK  2 active torsions:
REMARK  status: ('A' for Active; 'I' for Inactive)
REMARK    1  A    between atoms: _2  and  _17
REMARK    2  A    between atoms: _11  and  _12
REMARK                            x       y       z     vdW  Elec       q    Type
REMARK                         _______ _______ _______ _____ _____    ______ ____
ROOT
ATOM      1  C   UNL     1     -12.978   1.942 -19.139  0.00  0.00    +0.098 A 
ATOM      2  C   UNL     1     -12.386   2.071 -17.929  0.00  0.00    +0.053 A 
ATOM      3  N   UNL     1     -12.626   3.214 -17.165  0.00  0.00    -0.339 N 
ATOM      4  H   UNL     1     -12.221   3.248 -16.237  0.00  0.00    +0.167 HD
ATOM      5  C   UNL     1     -13.419   4.221 -17.599  0.00  0.00    +0.139 A 
ATOM      6  C   UNL     1     -13.791   5.433 -17.083  0.00  0.00    +0.079 A 
ATOM      7  C   UNL     1     -14.652   5.988 -18.063  0.00  0.00    +0.130 A 
ATOM      8  N   UNL     1     -14.809   5.175 -19.117  0.00  0.00    -0.159 NA
ATOM      9  N   UNL     1     -14.038   4.099 -18.825  0.00  0.00    -0.179 N 
ATOM     10  C   UNL     1     -13.891   2.993 -19.669  0.00  0.00    +0.275 A 
ATOM     11  O   UNL     1     -14.462   2.903 -20.749  0.00  0.00    -0.266 OA
ENDROOT
BRANCH   2  12
ATOM     12  C   UNL     1     -11.463   1.012 -17.389  0.00  0.00    -0.001 A 
ATOM     13  C   UNL     1     -11.938  -0.071 -16.620  0.00  0.00    +0.010 A 
ATOM     14  C   UNL     1     -11.082  -1.060 -16.121  0.00  0.00    +0.001 A 
ATOM     15  C   UNL     1      -9.717  -0.990 -16.362  0.00  0.00    +0.000 A 
ATOM     16  C   UNL     1      -9.212   0.065 -17.110  0.00  0.00    +0.001 A 
ATOM     17  C   UNL     1     -10.074   1.045 -17.622  0.00  0.00    +0.010 A 
ENDBRANCH   2  12
BRANCH   7  18
ATOM     18  C   UNL     1     -15.334   7.318 -17.987  0.00  0.00    +0.155 A 
ATOM     19  C   UNL     1     -15.084   8.326 -17.072  0.00  0.00    +0.051 A 
ATOM     20  C   UNL     1     -15.962   9.394 -17.383  0.00  0.00    +0.042 A 
ATOM     21  C   UNL     1     -16.698   8.978 -18.465  0.00  0.00    +0.196 A 
ATOM     22  O   UNL     1     -16.325   7.729 -18.839  0.00  0.00    -0.461 OA
ENDBRANCH   7  18
TORSDOF 2
ENDMDL
MODEL 2
REMARK VINA RESULT:      -7.3      8.181      8.959
REMARK  Name = min_compound970.pdb
REMARK  2 active torsions:
REMARK  status: ('A' for Active; 'I' for Inactive)
REMARK    1  A    between atoms: _2  and  _17
REMARK    2  A    between atoms: _11  and  _12
REMARK                            x       y       z     vdW  Elec       q    Type
REMARK                         _______ _______ _______ _____ _____    ______ ____
ROOT
ATOM      1  C   UNL     1     -17.721   2.204  -8.967  0.00  0.00    +0.098 A 
ATOM      2  C   UNL     1     -16.384   2.174  -8.766  0.00  0.00    +0.053 A 
ATOM      3  N   UNL     1     -15.564   3.066  -9.460  0.00  0.00    -0.339 N 
ATOM      4  H   UNL     1     -14.576   3.062  -9.236  0.00  0.00    +0.167 HD
ATOM      5  C   UNL     1     -16.057   3.956 -10.352  0.00  0.00    +0.139 A 
ATOM      6  C   UNL     1     -15.494   4.898 -11.171  0.00  0.00    +0.079 A 
ATOM      7  C   UNL     1     -16.594   5.488 -11.843  0.00  0.00    +0.130 A 
ATOM      8  N   UNL     1     -17.764   4.953 -11.466  0.00  0.00    -0.159 NA
ATOM      9  N   UNL     1     -17.419   4.007 -10.559  0.00  0.00    -0.179 N 
ATOM     10  C   UNL     1     -18.340   3.179  -9.908  0.00  0.00    +0.275 A 
ATOM     11  O   UNL     1     -19.547   3.251 -10.100  0.00  0.00    -0.266 OA
ENDROOT
BRANCH   2  12
ATOM     12  C   UNL     1     -15.752   1.191  -7.817  0.00  0.00    -0.001 A 
ATOM     13  C   UNL     1     -14.606   1.515  -7.061  0.00  0.00    +0.010 A 
ATOM     14  C   UNL     1     -14.020   0.604  -6.173  0.00  0.00    +0.001 A 
ATOM     15  C   UNL     1     -14.554  -0.668  -6.023  0.00  0.00    +0.000 A 
ATOM     16  C   UNL     1     -15.679  -1.024  -6.755  0.00  0.00    +0.001 A 
ATOM     17  C   UNL     1     -16.273  -0.105  -7.632  0.00  0.00    +0.010 A 
ENDBRANCH   2  12
BRANCH   7  18
ATOM     18  C   UNL     1     -16.522   6.582 -12.862  0.00  0.00    +0.155 A 
ATOM     19  C   UNL     1     -15.594   6.704 -13.882  0.00  0.00    +0.051 A 
ATOM     20  C   UNL     1     -15.914   7.887 -14.594  0.00  0.00    +0.042 A 
ATOM     21  C   UNL     1     -17.015   8.420 -13.968  0.00  0.00    +0.196 A 
ATOM     22  O   UNL     1     -17.391   7.639 -12.925  0.00  0.00    -0.461 OA
ENDBRANCH   7  18
TORSDOF 2
ENDMDL
MODEL 3
REMARK VINA RESULT:      -7.3      2.464      2.676
REMARK  Name = min_compound970.pdb
REMARK  2 active torsions:
REMARK  status: ('A' for Active; 'I' for Inactive)
REMARK    1  A    between atoms: _2  and  _17
REMARK    2  A    between atoms: _11  and  _12
REMARK                            x       y       z     vdW  Elec       q    Type
REMARK                         _______ _______ _______ _____ _____    ______ ____
ROOT
ATOM      1  C   UNL     1     -11.880   3.781 -17.701  0.00  0.00    +0.098 A 
ATOM      2  C   UNL     1     -12.137   2.753 -16.861  0.00  0.00    +0.053 A 
ATOM      3  N   UNL     1     -13.172   2.866 -15.931  0.00  0.00    -0.339 N 
ATOM      4  H   UNL     1     -13.380   2.053 -15.364  0.00  0.00    +0.167 HD
ATOM      5  C   UNL     1     -13.925   3.984 -15.821  0.00  0.00    +0.139 A 
ATOM      6  C   UNL     1     -14.954   4.366 -15.001  0.00  0.00    +0.079 A 
ATOM      7  C   UNL     1     -15.288   5.673 -15.434  0.00  0.00    +0.130 A 
ATOM      8  N   UNL     1     -14.523   6.079 -16.458  0.00  0.00    -0.159 NA
ATOM      9  N   UNL     1     -13.684   5.037 -16.677  0.00  0.00    -0.179 N 
ATOM     10  C   UNL     1     -12.689   5.032 -17.662  0.00  0.00    +0.275 A 
ATOM     11  O   UNL     1     -12.502   5.976 -18.420  0.00  0.00    -0.266 OA
ENDROOT
BRANCH   2  12
ATOM     12  C   UNL     1     -11.323   1.487 -16.895  0.00  0.00    -0.001 A 
ATOM     13  C   UNL     1     -11.832   0.260 -16.421  0.00  0.00    +0.010 A 
ATOM     14  C   UNL     1     -11.078  -0.920 -16.457  0.00  0.00    +0.001 A 
ATOM     15  C   UNL     1      -9.784  -0.908 -16.957  0.00  0.00    +0.000 A 
ATOM     16  C   UNL     1      -9.248   0.283 -17.428  0.00  0.00    +0.001 A 
ATOM     17  C   UNL     1     -10.010   1.460 -17.405  0.00  0.00    +0.010 A 
ENDBRANCH   2  12
BRANCH   7  18
ATOM     18  C   UNL     1     -16.359   6.547 -14.859  0.00  0.00    +0.155 A 
ATOM     19  C   UNL     1     -16.655   6.719 -13.518  0.00  0.00    +0.051 A 
ATOM     20  C   UNL     1     -17.736   7.633 -13.447  0.00  0.00    +0.042 A 
ATOM     21  C   UNL     1     -18.038   7.965 -14.745  0.00  0.00    +0.196 A 
ATOM     22  O   UNL     1     -17.212   7.318 -15.604  0.00  0.00    -0.461 OA
ENDBRANCH   7  18
TORSDOF 2
ENDMDL
MODEL 4
REMARK VINA RESULT:      -7.2      2.002      2.192
REMARK  Name = min_compound970.pdb
REMARK  2 active torsions:
REMARK  status: ('A' for Active; 'I' for Inactive)
REMARK    1  A    between atoms: _2  and  _17
REMARK    2  A    between atoms: _11  and  _12
REMARK                            x       y       z     vdW  Elec       q    Type
REMARK                         _______ _______ _______ _____ _____    ______ ____
ROOT
ATOM      1  C   UNL     1     -14.174   2.063 -16.198  0.00  0.00    +0.098 A 
ATOM      2  C   UNL     1     -12.942   2.426 -16.622  0.00  0.00    +0.053 A 
ATOM      3  N   UNL     1     -12.681   3.767 -16.910  0.00  0.00    -0.339 N 
ATOM      4  H   UNL     1     -11.731   4.014 -17.160  0.00  0.00    +0.167 HD
ATOM      5  C   UNL     1     -13.628   4.727 -16.801  0.00  0.00    +0.139 A 
ATOM      6  C   UNL     1     -13.653   6.075 -17.041  0.00  0.00    +0.079 A 
ATOM      7  C   UNL     1     -14.973   6.471 -16.710  0.00  0.00    +0.130 A 
ATOM      8  N   UNL     1     -15.720   5.441 -16.288  0.00  0.00    -0.159 NA
ATOM      9  N   UNL     1     -14.886   4.375 -16.359  0.00  0.00    -0.179 N 
ATOM     10  C   UNL     1     -15.259   3.069 -16.021  0.00  0.00    +0.275 A 
ATOM     11  O   UNL     1     -16.380   2.784 -15.619  0.00  0.00    -0.266 OA
ENDROOT
BRANCH   2  12
ATOM     12  C   UNL     1     -11.842   1.414 -16.803  0.00  0.00    -0.001 A 
ATOM     13  C   UNL     1     -12.034   0.046 -16.517  0.00  0.00    +0.010 A 
ATOM     14  C   UNL     1     -11.014  -0.898 -16.689  0.00  0.00    +0.001 A 
ATOM     15  C   UNL     1      -9.763  -0.502 -17.140  0.00  0.00    +0.000 A 
ATOM     16  C   UNL     1      -9.537   0.838 -17.426  0.00  0.00    +0.001 A 
ATOM     17  C   UNL     1     -10.564   1.779 -17.268  0.00  0.00    +0.010 A 
ENDBRANCH   2  12
BRANCH   7  18
ATOM     18  C   UNL     1     -15.527   7.859 -16.799  0.00  0.00    +0.155 A 
ATOM     19  C   UNL     1     -15.770   8.581 -17.954  0.00  0.00    +0.051 A 
ATOM     20  C   UNL     1     -16.291   9.837 -17.556  0.00  0.00    +0.042 A 
ATOM     21  C   UNL     1     -16.336   9.811 -16.183  0.00  0.00    +0.196 A 
ATOM     22  O   UNL     1     -15.879   8.622 -15.718  0.00  0.00    -0.461 OA
ENDBRANCH   7  18
TORSDOF 2
ENDMDL
MODEL 5
REMARK VINA RESULT:      -7.2      2.192      2.932
REMARK  Name = min_compound970.pdb
REMARK  2 active torsions:
REMARK  status: ('A' for Active; 'I' for Inactive)
REMARK    1  A    between atoms: _2  and  _17
REMARK    2  A    between atoms: _11  and  _12
REMARK                            x       y       z     vdW  Elec       q    Type
REMARK                         _______ _______ _______ _____ _____    ______ ____
ROOT
ATOM      1  C   UNL     1     -11.597   5.010 -17.818  0.00  0.00    +0.098 A 
ATOM      2  C   UNL     1     -12.316   4.168 -17.041  0.00  0.00    +0.053 A 
ATOM      3  N   UNL     1     -13.502   4.615 -16.456  0.00  0.00    -0.339 N 
ATOM      4  H   UNL     1     -14.050   3.939 -15.936  0.00  0.00    +0.167 HD
ATOM      5  C   UNL     1     -13.957   5.878 -16.621  0.00  0.00    +0.139 A 
ATOM      6  C   UNL     1     -15.041   6.571 -16.152  0.00  0.00    +0.079 A 
ATOM      7  C   UNL     1     -14.914   7.862 -16.724  0.00  0.00    +0.130 A 
ATOM      8  N   UNL     1     -13.826   7.966 -17.501  0.00  0.00    -0.159 NA
ATOM      9  N   UNL     1     -13.242   6.745 -17.419  0.00  0.00    -0.179 N 
ATOM     10  C   UNL     1     -12.052   6.405 -18.073  0.00  0.00    +0.275 A 
ATOM     11  O   UNL     1     -11.441   7.190 -18.787  0.00  0.00    -0.266 OA
ENDROOT
BRANCH   2  12
ATOM     12  C   UNL     1     -11.861   2.757 -16.779  0.00  0.00    -0.001 A 
ATOM     13  C   UNL     1     -10.723   2.473 -15.995  0.00  0.00    +0.010 A 
ATOM     14  C   UNL     1     -10.301   1.161 -15.746  0.00  0.00    +0.001 A 
ATOM     15  C   UNL     1     -10.997   0.088 -16.287  0.00  0.00    +0.000 A 
ATOM     16  C   UNL     1     -12.118   0.330 -17.068  0.00  0.00    +0.001 A 
ATOM     17  C   UNL     1     -12.548   1.644 -17.303  0.00  0.00    +0.010 A 
ENDBRANCH   2  12
BRANCH   7  18
ATOM     18  C   UNL     1     -15.850   9.012 -16.524  0.00  0.00    +0.155 A 
ATOM     19  C   UNL     1     -16.561   9.682 -17.504  0.00  0.00    +0.051 A 
ATOM     20  C   UNL     1     -17.313  10.692 -16.854  0.00  0.00    +0.042 A 
ATOM     21  C   UNL     1     -17.017  10.583 -15.517  0.00  0.00    +0.196 A 
ATOM     22  O   UNL     1     -16.139   9.572 -15.307  0.00  0.00    -0.461 OA
ENDBRANCH   7  18
TORSDOF 2
ENDMDL
MODEL 6
REMARK VINA RESULT:      -7.2     10.671     12.891
REMARK  Name = min_compound970.pdb
REMARK  2 active torsions:
REMARK  status: ('A' for Active; 'I' for Inactive)
REMARK    1  A    between atoms: _2  and  _17
REMARK    2  A    between atoms: _11  and  _12
REMARK                            x       y       z     vdW  Elec       q    Type
REMARK                         _______ _______ _______ _____ _____    ______ ____
ROOT
ATOM      1  C   UNL     1     -17.260   3.675  -8.272  0.00  0.00    +0.098 A 
ATOM      2  C   UNL     1     -16.394   3.126  -9.154  0.00  0.00    +0.053 A 
ATOM      3  N   UNL     1     -15.586   2.061  -8.752  0.00  0.00    -0.339 N 
ATOM      4  H   UNL     1     -14.997   1.631  -9.456  0.00  0.00    +0.167 HD
ATOM      5  C   UNL     1     -15.619   1.563  -7.495  0.00  0.00    +0.139 A 
ATOM      6  C   UNL     1     -14.935   0.573  -6.841  0.00  0.00    +0.079 A 
ATOM      7  C   UNL     1     -15.475   0.571  -5.531  0.00  0.00    +0.130 A 
ATOM      8  N   UNL     1     -16.435   1.495  -5.378  0.00  0.00    -0.159 NA
ATOM      9  N   UNL     1     -16.505   2.104  -6.587  0.00  0.00    -0.179 N 
ATOM     10  C   UNL     1     -17.378   3.158  -6.880  0.00  0.00    +0.275 A 
ATOM     11  O   UNL     1     -18.165   3.613  -6.059  0.00  0.00    -0.266 OA
ENDROOT
BRANCH   2  12
ATOM     12  C   UNL     1     -16.270   3.645 -10.562  0.00  0.00    -0.001 A 
ATOM     13  C   UNL     1     -15.279   4.579 -10.928  0.00  0.00    +0.010 A 
ATOM     14  C   UNL     1     -15.158   5.058 -12.239  0.00  0.00    +0.001 A 
ATOM     15  C   UNL     1     -16.037   4.629 -13.224  0.00  0.00    +0.000 A 
ATOM     16  C   UNL     1     -17.029   3.714 -12.898  0.00  0.00    +0.001 A 
ATOM     17  C   UNL     1     -17.138   3.224 -11.589  0.00  0.00    +0.010 A 
ENDBRANCH   2  12
BRANCH   7  18
ATOM     18  C   UNL     1     -15.066  -0.330  -4.409  0.00  0.00    +0.155 A 
ATOM     19  C   UNL     1     -14.707   0.053  -3.128  0.00  0.00    +0.051 A 
ATOM     20  C   UNL     1     -14.400  -1.132  -2.412  0.00  0.00    +0.042 A 
ATOM     21  C   UNL     1     -14.588  -2.167  -3.295  0.00  0.00    +0.196 A 
ATOM     22  O   UNL     1     -14.991  -1.695  -4.500  0.00  0.00    -0.461 OA
ENDBRANCH   7  18
TORSDOF 2
ENDMDL
MODEL 7
REMARK VINA RESULT:      -7.2      2.146      7.865
REMARK  Name = min_compound970.pdb
REMARK  2 active torsions:
REMARK  status: ('A' for Active; 'I' for Inactive)
REMARK    1  A    between atoms: _2  and  _17
REMARK    2  A    between atoms: _11  and  _12
REMARK                            x       y       z     vdW  Elec       q    Type
REMARK                         _______ _______ _______ _____ _____    ______ ____
ROOT
ATOM      1  C   UNL     1     -13.316   6.922 -18.180  0.00  0.00    +0.098 A 
ATOM      2  C   UNL     1     -14.077   6.892 -17.062  0.00  0.00    +0.053 A 
ATOM      3  N   UNL     1     -14.022   5.778 -16.223  0.00  0.00    -0.339 N 
ATOM      4  H   UNL     1     -14.553   5.816 -15.360  0.00  0.00    +0.167 HD
ATOM      5  C   UNL     1     -13.246   4.704 -16.497  0.00  0.00    +0.139 A 
ATOM      6  C   UNL     1     -13.030   3.499 -15.883  0.00  0.00    +0.079 A 
ATOM      7  C   UNL     1     -12.082   2.843 -16.707  0.00  0.00    +0.130 A 
ATOM      8  N   UNL     1     -11.726   3.590 -17.762  0.00  0.00    -0.159 NA
ATOM      9  N   UNL     1     -12.457   4.724 -17.628  0.00  0.00    -0.179 N 
ATOM     10  C   UNL     1     -12.412   5.792 -18.531  0.00  0.00    +0.275 A 
ATOM     11  O   UNL     1     -11.692   5.792 -19.522  0.00  0.00    -0.266 OA
ENDROOT
BRANCH   2  12
ATOM     12  C   UNL     1     -14.994   8.031 -16.702  0.00  0.00    -0.001 A 
ATOM     13  C   UNL     1     -15.606   8.834 -17.686  0.00  0.00    +0.010 A 
ATOM     14  C   UNL     1     -16.464   9.890 -17.354  0.00  0.00    +0.001 A 
ATOM     15  C   UNL     1     -16.725  10.187 -16.024  0.00  0.00    +0.000 A 
ATOM     16  C   UNL     1     -16.134   9.421 -15.028  0.00  0.00    +0.001 A 
ATOM     17  C   UNL     1     -15.289   8.355 -15.363  0.00  0.00    +0.010 A 
ENDBRANCH   2  12
BRANCH   7  18
ATOM     18  C   UNL     1     -11.507   1.480 -16.479  0.00  0.00    +0.155 A 
ATOM     19  C   UNL     1     -10.332   1.178 -15.813  0.00  0.00    +0.051 A 
ATOM     20  C   UNL     1     -10.191  -0.232 -15.842  0.00  0.00    +0.042 A 
ATOM     21  C   UNL     1     -11.284  -0.709 -16.524  0.00  0.00    +0.196 A 
ATOM     22  O   UNL     1     -12.085   0.315 -16.910  0.00  0.00    -0.461 OA
ENDBRANCH   7  18
TORSDOF 2
ENDMDL
MODEL 8
REMARK VINA RESULT:      -7.1     13.093     14.516
REMARK  Name = min_compound970.pdb
REMARK  2 active torsions:
REMARK  status: ('A' for Active; 'I' for Inactive)
REMARK    1  A    between atoms: _2  and  _17
REMARK    2  A    between atoms: _11  and  _12
REMARK                            x       y       z     vdW  Elec       q    Type
REMARK                         _______ _______ _______ _____ _____    ______ ____
ROOT
ATOM      1  C   UNL     1     -14.223  -0.631  -2.770  0.00  0.00    +0.098 A 
ATOM      2  C   UNL     1     -14.748  -1.796  -3.213  0.00  0.00    +0.053 A 
ATOM      3  N   UNL     1     -15.403  -1.832  -4.444  0.00  0.00    -0.339 N 
ATOM      4  H   UNL     1     -15.725  -2.734  -4.776  0.00  0.00    +0.167 HD
ATOM      5  C   UNL     1     -15.556  -0.730  -5.214  0.00  0.00    +0.139 A 
ATOM      6  C   UNL     1     -16.163  -0.480  -6.415  0.00  0.00    +0.079 A 
ATOM      7  C   UNL     1     -15.940   0.900  -6.648  0.00  0.00    +0.130 A 
ATOM      8  N   UNL     1     -15.236   1.472  -5.661  0.00  0.00    -0.159 NA
ATOM      9  N   UNL     1     -15.017   0.464  -4.782  0.00  0.00    -0.179 N 
ATOM     10  C   UNL     1     -14.322   0.617  -3.577  0.00  0.00    +0.275 A 
ATOM     11  O   UNL     1     -13.841   1.686  -3.221  0.00  0.00    -0.266 OA
ENDROOT
BRANCH   2  12
ATOM     12  C   UNL     1     -14.652  -3.061  -2.401  0.00  0.00    -0.001 A 
ATOM     13  C   UNL     1     -13.510  -3.369  -1.633  0.00  0.00    +0.010 A 
ATOM     14  C   UNL     1     -13.421  -4.542  -0.872  0.00  0.00    +0.001 A 
ATOM     15  C   UNL     1     -14.467  -5.454  -0.868  0.00  0.00    +0.000 A 
ATOM     16  C   UNL     1     -15.605  -5.186  -1.618  0.00  0.00    +0.001 A 
ATOM     17  C   UNL     1     -15.698  -4.004  -2.365  0.00  0.00    +0.010 A 
ENDBRANCH   2  12
BRANCH   7  18
ATOM     18  C   UNL     1     -16.407   1.682  -7.836  0.00  0.00    +0.155 A 
ATOM     19  C   UNL     1     -17.692   1.721  -8.348  0.00  0.00    +0.051 A 
ATOM     20  C   UNL     1     -17.665   2.589  -9.469  0.00  0.00    +0.042 A 
ATOM     21  C   UNL     1     -16.367   3.027  -9.577  0.00  0.00    +0.196 A 
ATOM     22  O   UNL     1     -15.602   2.488  -8.597  0.00  0.00    -0.461 OA
ENDBRANCH   7  18
TORSDOF 2
ENDMDL
MODEL 9
REMARK VINA RESULT:      -7.1      2.860      4.435
REMARK  Name = min_compound970.pdb
REMARK  2 active torsions:
REMARK  status: ('A' for Active; 'I' for Inactive)
REMARK    1  A    between atoms: _2  and  _17
REMARK    2  A    between atoms: _11  and  _12
REMARK                            x       y       z     vdW  Elec       q    Type
REMARK                         _______ _______ _______ _____ _____    ______ ____
ROOT
ATOM      1  C   UNL     1     -12.474   3.262 -17.888  0.00  0.00    +0.098 A 
ATOM      2  C   UNL     1     -12.201   1.978 -18.215  0.00  0.00    +0.053 A 
ATOM      3  N   UNL     1     -12.735   1.438 -19.386  0.00  0.00    -0.339 N 
ATOM      4  H   UNL     1     -12.457   0.496 -19.635  0.00  0.00    +0.167 HD
ATOM      5  C   UNL     1     -13.542   2.149 -20.207  0.00  0.00    +0.139 A 
ATOM      6  C   UNL     1     -14.210   1.867 -21.369  0.00  0.00    +0.079 A 
ATOM      7  C   UNL     1     -14.870   3.076 -21.703  0.00  0.00    +0.130 A 
ATOM      8  N   UNL     1     -14.627   4.048 -20.813  0.00  0.00    -0.159 NA
ATOM      9  N   UNL     1     -13.821   3.463 -19.894  0.00  0.00    -0.179 N 
ATOM     10  C   UNL     1     -13.327   4.118 -18.760  0.00  0.00    +0.275 A 
ATOM     11  O   UNL     1     -13.578   5.290 -18.510  0.00  0.00    -0.266 OA
ENDROOT
BRANCH   2  12
ATOM     12  C   UNL     1     -11.340   1.109 -17.337  0.00  0.00    -0.001 A 
ATOM     13  C   UNL     1     -11.005   1.481 -16.019  0.00  0.00    +0.010 A 
ATOM     14  C   UNL     1     -10.209   0.671 -15.198  0.00  0.00    +0.001 A 
ATOM     15  C   UNL     1      -9.710  -0.532 -15.677  0.00  0.00    +0.000 A 
ATOM     16  C   UNL     1     -10.014  -0.927 -16.973  0.00  0.00    +0.001 A 
ATOM     17  C   UNL     1     -10.824  -0.122 -17.786  0.00  0.00    +0.010 A 
ENDBRANCH   2  12
BRANCH   7  18
ATOM     18  C   UNL     1     -15.746   3.303 -22.896  0.00  0.00    +0.155 A 
ATOM     19  C   UNL     1     -15.954   2.429 -23.948  0.00  0.00    +0.051 A 
ATOM     20  C   UNL     1     -16.855   3.062 -24.840  0.00  0.00    +0.042 A 
ATOM     21  C   UNL     1     -17.143   4.285 -24.283  0.00  0.00    +0.196 A 
ATOM     22  O   UNL     1     -16.482   4.438 -23.110  0.00  0.00    -0.461 OA
ENDBRANCH   7  18
TORSDOF 2
ENDMDL
