MODEL 1
REMARK VINA RESULT:      -3.8      0.000      0.000
REMARK  Name = min_compound3.pdb
REMARK  3 active torsions:
REMARK  status: ('A' for Active; 'I' for Inactive)
REMARK    1  A    between atoms: _3  and  _8
REMARK    2  A    between atoms: _8  and  _9
REMARK    3  A    between atoms: _9  and  _10
REMARK                            x       y       z     vdW  Elec       q    Type
REMARK                         _______ _______ _______ _____ _____    ______ ____
ROOT
ATOM      1  H   UNL     1     -11.176  -1.364 -18.093  0.00  0.00    +0.122 HD
ATOM      2  N   UNL     1     -11.186  -0.363 -17.898  0.00  0.00    -0.314 NA
ATOM      3  C   UNL     1     -12.062  -0.138 -16.720  0.00  0.00    +0.096 C 
ATOM      4  C   UNL     1     -12.306   1.475 -16.442  0.00  0.00    +0.099 C 
ATOM      5  N   UNL     1     -10.969   1.833 -15.867  0.00  0.00    -0.299 NA
ATOM      6  C   UNL     1     -10.094   1.606 -17.065  0.00  0.00    +0.099 C 
ATOM      7  C   UNL     1      -9.849  -0.005 -17.322  0.00  0.00    +0.096 C 
ENDROOT
BRANCH   5   8
ATOM      8  C   UNL     1     -10.943   3.283 -15.552  0.00  0.00    +0.099 C 
BRANCH   8   9
ATOM      9  C   UNL     1     -10.449   4.160 -16.721  0.00  0.00    +0.093 C 
BRANCH   9  10
ATOM     10  N   UNL     1     -11.512   5.030 -17.231  0.00  0.00    -0.329 NA
ATOM     11  H   UNL     1     -11.207   5.452 -18.107  0.00  0.00    +0.118 HD
ATOM     12  H   UNL     1     -11.646   5.803 -16.578  0.00  0.00    +0.118 HD
ENDBRANCH   9  10
ENDBRANCH   8   9
ENDBRANCH   5   8
TORSDOF 3
ENDMDL
MODEL 2
REMARK VINA RESULT:      -3.8      2.038      2.909
REMARK  Name = min_compound3.pdb
REMARK  3 active torsions:
REMARK  status: ('A' for Active; 'I' for Inactive)
REMARK    1  A    between atoms: _3  and  _8
REMARK    2  A    between atoms: _8  and  _9
REMARK    3  A    between atoms: _9  and  _10
REMARK                            x       y       z     vdW  Elec       q    Type
REMARK                         _______ _______ _______ _____ _____    ______ ____
ROOT
ATOM      1  H   UNL     1      -9.251  -1.457 -16.072  0.00  0.00    +0.122 HD
ATOM      2  N   UNL     1      -9.775  -0.583 -16.113  0.00  0.00    -0.314 NA
ATOM      3  C   UNL     1      -9.412   0.106 -17.377  0.00  0.00    +0.096 C 
ATOM      4  C   UNL     1     -10.057   1.628 -17.447  0.00  0.00    +0.099 C 
ATOM      5  N   UNL     1     -11.488   1.280 -17.722  0.00  0.00    -0.299 NA
ATOM      6  C   UNL     1     -11.846   0.588 -16.439  0.00  0.00    +0.099 C 
ATOM      7  C   UNL     1     -11.207  -0.932 -16.388  0.00  0.00    +0.096 C 
ENDROOT
BRANCH   5   8
ATOM      8  C   UNL     1     -12.288   2.526 -17.807  0.00  0.00    +0.099 C 
BRANCH   8   9
ATOM      9  C   UNL     1     -13.297   2.534 -18.975  0.00  0.00    +0.093 C 
BRANCH   9  10
ATOM     10  N   UNL     1     -12.955   1.535 -19.991  0.00  0.00    -0.329 NA
ATOM     11  H   UNL     1     -12.550   2.005 -20.799  0.00  0.00    +0.118 HD
ATOM     12  H   UNL     1     -13.814   1.096 -20.323  0.00  0.00    +0.118 HD
ENDBRANCH   9  10
ENDBRANCH   8   9
ENDBRANCH   5   8
TORSDOF 3
ENDMDL
MODEL 3
REMARK VINA RESULT:      -3.8      1.314      2.076
REMARK  Name = min_compound3.pdb
REMARK  3 active torsions:
REMARK  status: ('A' for Active; 'I' for Inactive)
REMARK    1  A    between atoms: _3  and  _8
REMARK    2  A    between atoms: _8  and  _9
REMARK    3  A    between atoms: _9  and  _10
REMARK                            x       y       z     vdW  Elec       q    Type
REMARK                         _______ _______ _______ _____ _____    ______ ____
ROOT
ATOM      1  H   UNL     1     -11.193  -1.936 -16.467  0.00  0.00    +0.122 HD
ATOM      2  N   UNL     1     -11.030  -0.937 -16.346  0.00  0.00    -0.314 NA
ATOM      3  C   UNL     1     -10.295  -0.448 -17.539  0.00  0.00    +0.096 C 
ATOM      4  C   UNL     1      -9.806   1.122 -17.353  0.00  0.00    +0.099 C 
ATOM      5  N   UNL     1     -11.122   1.816 -17.535  0.00  0.00    -0.299 NA
ATOM      6  C   UNL     1     -11.854   1.319 -16.322  0.00  0.00    +0.099 C 
ATOM      7  C   UNL     1     -12.346  -0.242 -16.528  0.00  0.00    +0.096 C 
ENDROOT
BRANCH   5   8
ATOM      8  C   UNL     1     -10.929   3.279 -17.383  0.00  0.00    +0.099 C 
BRANCH   8   9
ATOM      9  C   UNL     1     -11.198   3.792 -15.952  0.00  0.00    +0.093 C 
BRANCH   9  10
ATOM     10  N   UNL     1      -9.962   4.218 -15.290  0.00  0.00    -0.329 NA
ATOM     11  H   UNL     1      -9.260   4.431 -15.997  0.00  0.00    +0.118 HD
ATOM     12  H   UNL     1      -9.590   3.434 -14.752  0.00  0.00    +0.118 HD
ENDBRANCH   9  10
ENDBRANCH   8   9
ENDBRANCH   5   8
TORSDOF 3
ENDMDL
MODEL 4
REMARK VINA RESULT:      -3.6     12.008     12.730
REMARK  Name = min_compound3.pdb
REMARK  3 active torsions:
REMARK  status: ('A' for Active; 'I' for Inactive)
REMARK    1  A    between atoms: _3  and  _8
REMARK    2  A    between atoms: _8  and  _9
REMARK    3  A    between atoms: _9  and  _10
REMARK                            x       y       z     vdW  Elec       q    Type
REMARK                         _______ _______ _______ _____ _____    ______ ____
ROOT
ATOM      1  H   UNL     1     -14.717  -2.745  -6.132  0.00  0.00    +0.122 HD
ATOM      2  N   UNL     1     -14.484  -1.793  -5.851  0.00  0.00    -0.314 NA
ATOM      3  C   UNL     1     -15.557  -0.896  -6.349  0.00  0.00    +0.096 C 
ATOM      4  C   UNL     1     -15.175   0.697  -6.120  0.00  0.00    +0.099 C 
ATOM      5  N   UNL     1     -15.394   0.796  -4.640  0.00  0.00    -0.299 NA
ATOM      6  C   UNL     1     -14.303  -0.110  -4.148  0.00  0.00    +0.099 C 
ATOM      7  C   UNL     1     -14.704  -1.694  -4.372  0.00  0.00    +0.096 C 
ENDROOT
BRANCH   5   8
ATOM      8  C   UNL     1     -15.082   2.174  -4.189  0.00  0.00    +0.099 C 
BRANCH   8   9
ATOM      9  C   UNL     1     -16.272   3.149  -4.312  0.00  0.00    +0.093 C 
BRANCH   9  10
ATOM     10  N   UNL     1     -15.933   4.482  -3.806  0.00  0.00    -0.329 NA
ATOM     11  H   UNL     1     -16.658   5.140  -4.088  0.00  0.00    +0.118 HD
ATOM     12  H   UNL     1     -15.075   4.797  -4.259  0.00  0.00    +0.118 HD
ENDBRANCH   9  10
ENDBRANCH   8   9
ENDBRANCH   5   8
TORSDOF 3
ENDMDL
MODEL 5
REMARK VINA RESULT:      -3.6      1.417      1.626
REMARK  Name = min_compound3.pdb
REMARK  3 active torsions:
REMARK  status: ('A' for Active; 'I' for Inactive)
REMARK    1  A    between atoms: _3  and  _8
REMARK    2  A    between atoms: _8  and  _9
REMARK    3  A    between atoms: _9  and  _10
REMARK                            x       y       z     vdW  Elec       q    Type
REMARK                         _______ _______ _______ _____ _____    ______ ____
ROOT
ATOM      1  H   UNL     1     -10.646  -1.886 -16.237  0.00  0.00    +0.122 HD
ATOM      2  N   UNL     1     -10.926  -0.912 -16.353  0.00  0.00    -0.314 NA
ATOM      3  C   UNL     1      -9.972  -0.070 -15.588  0.00  0.00    +0.096 C 
ATOM      4  C   UNL     1     -10.454   1.513 -15.548  0.00  0.00    +0.099 C 
ATOM      5  N   UNL     1     -10.113   1.913 -16.952  0.00  0.00    -0.299 NA
ATOM      6  C   UNL     1     -11.084   1.059 -17.715  0.00  0.00    +0.099 C 
ATOM      7  C   UNL     1     -10.585  -0.512 -17.757  0.00  0.00    +0.096 C 
ENDROOT
BRANCH   5   8
ATOM      8  C   UNL     1     -10.490   3.332 -17.163  0.00  0.00    +0.099 C 
BRANCH   8   9
ATOM      9  C   UNL     1     -11.391   3.903 -16.048  0.00  0.00    +0.093 C 
BRANCH   9  10
ATOM     10  N   UNL     1     -12.694   4.326 -16.570  0.00  0.00    -0.329 NA
ATOM     11  H   UNL     1     -12.674   5.330 -16.744  0.00  0.00    +0.118 HD
ATOM     12  H   UNL     1     -13.400   4.180 -15.848  0.00  0.00    +0.118 HD
ENDBRANCH   9  10
ENDBRANCH   8   9
ENDBRANCH   5   8
TORSDOF 3
ENDMDL
MODEL 6
REMARK VINA RESULT:      -3.5      2.230      2.729
REMARK  Name = min_compound3.pdb
REMARK  3 active torsions:
REMARK  status: ('A' for Active; 'I' for Inactive)
REMARK    1  A    between atoms: _3  and  _8
REMARK    2  A    between atoms: _8  and  _9
REMARK    3  A    between atoms: _9  and  _10
REMARK                            x       y       z     vdW  Elec       q    Type
REMARK                         _______ _______ _______ _____ _____    ______ ____
ROOT
ATOM      1  H   UNL     1      -9.127  -0.419 -17.292  0.00  0.00    +0.122 HD
ATOM      2  N   UNL     1      -9.714   0.403 -17.154  0.00  0.00    -0.314 NA
ATOM      3  C   UNL     1     -11.059   0.101 -17.705  0.00  0.00    +0.096 C 
ATOM      4  C   UNL     1     -12.030   1.440 -17.712  0.00  0.00    +0.099 C 
ATOM      5  N   UNL     1     -12.343   1.528 -16.248  0.00  0.00    -0.299 NA
ATOM      6  C   UNL     1     -10.979   1.838 -15.703  0.00  0.00    +0.099 C 
ATOM      7  C   UNL     1     -10.027   0.491 -15.691  0.00  0.00    +0.096 C 
ENDROOT
BRANCH   5   8
ATOM      8  C   UNL     1     -13.211   2.706 -16.003  0.00  0.00    +0.099 C 
BRANCH   8   9
ATOM      9  C   UNL     1     -14.576   2.626 -16.717  0.00  0.00    +0.093 C 
BRANCH   9  10
ATOM     10  N   UNL     1     -15.634   2.170 -15.811  0.00  0.00    -0.329 NA
ATOM     11  H   UNL     1     -16.538   2.471 -16.174  0.00  0.00    +0.118 HD
ATOM     12  H   UNL     1     -15.522   2.639 -14.912  0.00  0.00    +0.118 HD
ENDBRANCH   9  10
ENDBRANCH   8   9
ENDBRANCH   5   8
TORSDOF 3
ENDMDL
MODEL 7
REMARK VINA RESULT:      -3.5      1.253      3.916
REMARK  Name = min_compound3.pdb
REMARK  3 active torsions:
REMARK  status: ('A' for Active; 'I' for Inactive)
REMARK    1  A    between atoms: _3  and  _8
REMARK    2  A    between atoms: _8  and  _9
REMARK    3  A    between atoms: _9  and  _10
REMARK                            x       y       z     vdW  Elec       q    Type
REMARK                         _______ _______ _______ _____ _____    ______ ____
ROOT
ATOM      1  H   UNL     1     -13.130   4.960 -17.043  0.00  0.00    +0.122 HD
ATOM      2  N   UNL     1     -12.648   4.063 -17.097  0.00  0.00    -0.314 NA
ATOM      3  C   UNL     1     -11.229   4.286 -16.721  0.00  0.00    +0.096 C 
ATOM      4  C   UNL     1     -10.313   2.931 -16.969  0.00  0.00    +0.099 C 
ATOM      5  N   UNL     1     -10.780   2.100 -15.812  0.00  0.00    -0.299 NA
ATOM      6  C   UNL     1     -12.211   1.877 -16.205  0.00  0.00    +0.099 C 
ATOM      7  C   UNL     1     -13.114   3.232 -15.940  0.00  0.00    +0.096 C 
ENDROOT
BRANCH   5   8
ATOM      8  C   UNL     1     -10.089   0.787 -15.842  0.00  0.00    +0.099 C 
BRANCH   8   9
ATOM      9  C   UNL     1      -9.524   0.418 -17.230  0.00  0.00    +0.093 C 
BRANCH   9  10
ATOM     10  N   UNL     1      -9.900  -0.943 -17.622  0.00  0.00    -0.329 NA
ATOM     11  H   UNL     1      -9.594  -1.111 -18.579  0.00  0.00    +0.118 HD
ATOM     12  H   UNL     1     -10.917  -1.012 -17.636  0.00  0.00    +0.118 HD
ENDBRANCH   9  10
ENDBRANCH   8   9
ENDBRANCH   5   8
TORSDOF 3
ENDMDL
MODEL 8
REMARK VINA RESULT:      -3.4      2.102      3.721
REMARK  Name = min_compound3.pdb
REMARK  3 active torsions:
REMARK  status: ('A' for Active; 'I' for Inactive)
REMARK    1  A    between atoms: _3  and  _8
REMARK    2  A    between atoms: _8  and  _9
REMARK    3  A    between atoms: _9  and  _10
REMARK                            x       y       z     vdW  Elec       q    Type
REMARK                         _______ _______ _______ _____ _____    ______ ____
ROOT
ATOM      1  H   UNL     1     -14.822   3.311 -17.469  0.00  0.00    +0.122 HD
ATOM      2  N   UNL     1     -14.031   2.717 -17.221  0.00  0.00    -0.314 NA
ATOM      3  C   UNL     1     -13.294   2.396 -18.469  0.00  0.00    +0.096 C 
ATOM      4  C   UNL     1     -12.106   1.275 -18.203  0.00  0.00    +0.099 C 
ATOM      5  N   UNL     1     -11.101   2.138 -17.501  0.00  0.00    -0.299 NA
ATOM      6  C   UNL     1     -11.854   2.452 -16.242  0.00  0.00    +0.099 C 
ATOM      7  C   UNL     1     -13.026   3.580 -16.519  0.00  0.00    +0.096 C 
ENDROOT
BRANCH   5   8
ATOM      8  C   UNL     1      -9.921   1.317 -17.134  0.00  0.00    +0.099 C 
BRANCH   8   9
ATOM      9  C   UNL     1     -10.110   0.513 -15.831  0.00  0.00    +0.093 C 
BRANCH   9  10
ATOM     10  N   UNL     1      -9.419  -0.778 -15.887  0.00  0.00    -0.329 NA
ATOM     11  H   UNL     1      -8.695  -0.738 -16.603  0.00  0.00    +0.118 HD
ATOM     12  H   UNL     1     -10.079  -1.492 -16.194  0.00  0.00    +0.118 HD
ENDBRANCH   9  10
ENDBRANCH   8   9
ENDBRANCH   5   8
TORSDOF 3
ENDMDL
MODEL 9
REMARK VINA RESULT:      -3.4     11.791     12.675
REMARK  Name = min_compound3.pdb
REMARK  3 active torsions:
REMARK  status: ('A' for Active; 'I' for Inactive)
REMARK    1  A    between atoms: _3  and  _8
REMARK    2  A    between atoms: _8  and  _9
REMARK    3  A    between atoms: _9  and  _10
REMARK                            x       y       z     vdW  Elec       q    Type
REMARK                         _______ _______ _______ _____ _____    ______ ____
ROOT
ATOM      1  H   UNL     1     -18.393  -1.625  -6.439  0.00  0.00    +0.122 HD
ATOM      2  N   UNL     1     -17.493  -1.441  -5.998  0.00  0.00    -0.314 NA
ATOM      3  C   UNL     1     -16.554  -0.983  -7.052  0.00  0.00    +0.096 C 
ATOM      4  C   UNL     1     -15.009  -0.847  -6.475  0.00  0.00    +0.099 C 
ATOM      5  N   UNL     1     -15.153   0.408  -5.668  0.00  0.00    -0.299 NA
ATOM      6  C   UNL     1     -16.100  -0.068  -4.605  0.00  0.00    +0.099 C 
ATOM      7  C   UNL     1     -17.637  -0.186  -5.191  0.00  0.00    +0.096 C 
ENDROOT
BRANCH   5   8
ATOM      8  C   UNL     1     -13.858   0.724  -5.018  0.00  0.00    +0.099 C 
BRANCH   8   9
ATOM      9  C   UNL     1     -14.009   1.383  -3.630  0.00  0.00    +0.093 C 
BRANCH   9  10
ATOM     10  N   UNL     1     -13.625   2.797  -3.659  0.00  0.00    -0.329 NA
ATOM     11  H   UNL     1     -14.446   3.369  -3.466  0.00  0.00    +0.118 HD
ATOM     12  H   UNL     1     -13.332   3.039  -4.606  0.00  0.00    +0.118 HD
ENDBRANCH   9  10
ENDBRANCH   8   9
ENDBRANCH   5   8
TORSDOF 3
ENDMDL
