MODEL 1
REMARK VINA RESULT:      -6.5      0.000      0.000
REMARK  Name = min_compound974.pdb
REMARK  3 active torsions:
REMARK  status: ('A' for Active; 'I' for Inactive)
REMARK    1  A    between atoms: _10  and  _18
REMARK    2  A    between atoms: _12  and  _15
REMARK    3  A    between atoms: _15  and  _17
REMARK                            x       y       z     vdW  Elec       q    Type
REMARK                         _______ _______ _______ _____ _____    ______ ____
ROOT
ATOM      1  C   UNL     1     -12.205   1.287 -16.497  0.00  0.00    -0.010 A 
ATOM      2  C   UNL     1     -10.903   1.829 -16.485  0.00  0.00    +0.066 A 
ATOM      3  C   UNL     1      -9.792   0.967 -16.458  0.00  0.00    +0.015 A 
ATOM      4  C   UNL     1      -9.965  -0.417 -16.431  0.00  0.00    +0.001 A 
ATOM      5  C   UNL     1     -11.247  -0.955 -16.432  0.00  0.00    +0.001 A 
ATOM      6  C   UNL     1     -12.358  -0.109 -16.464  0.00  0.00    +0.009 A 
ENDROOT
BRANCH   1  12
ATOM      7  H   UNL     1     -16.402   4.522 -18.826  0.00  0.00    +0.156 HD
ATOM      8  N   UNL     1     -15.599   3.920 -18.722  0.00  0.00    -0.270 N 
ATOM      9  C   UNL     1     -14.820   3.570 -19.781  0.00  0.00    +0.118 C 
ATOM     10  S   UNL     1     -13.551   2.488 -19.252  0.00  0.00    -0.061 S 
ATOM     11  C   UNL     1     -14.038   2.601 -17.599  0.00  0.00    +0.077 C 
ATOM     12  C   UNL     1     -13.443   2.081 -16.518  0.00  0.00    +0.029 C 
ATOM     13  S   UNL     1     -15.078   4.104 -21.327  0.00  0.00    -0.027 S 
ATOM     14  C   UNL     1     -15.271   3.425 -17.491  0.00  0.00    +0.256 C 
ATOM     15  O   UNL     1     -15.908   3.623 -16.470  0.00  0.00    -0.269 OA
ENDBRANCH   1  12
BRANCH   2  16
ATOM     16  C   UNL     1     -10.671   3.298 -16.453  0.00  0.00    +0.337 C 
ATOM     17  O   UNL     1     -10.738   4.076 -17.386  0.00  0.00    -0.245 OA
BRANCH  16  18
ATOM     18  O   UNL     1     -10.321   3.725 -15.224  0.00  0.00    -0.477 OA
ATOM     19  H   UNL     1      -9.674   3.057 -14.917  0.00  0.00    +0.295 HD
ENDBRANCH  16  18
ENDBRANCH   2  16
TORSDOF 3
ENDMDL
MODEL 2
REMARK VINA RESULT:      -6.2      2.078      2.423
REMARK  Name = min_compound974.pdb
REMARK  3 active torsions:
REMARK  status: ('A' for Active; 'I' for Inactive)
REMARK    1  A    between atoms: _10  and  _18
REMARK    2  A    between atoms: _12  and  _15
REMARK    3  A    between atoms: _15  and  _17
REMARK                            x       y       z     vdW  Elec       q    Type
REMARK                         _______ _______ _______ _____ _____    ______ ____
ROOT
ATOM      1  C   UNL     1     -12.022   1.235 -16.916  0.00  0.00    -0.010 A 
ATOM      2  C   UNL     1     -10.799   1.709 -16.399  0.00  0.00    +0.066 A 
ATOM      3  C   UNL     1      -9.916   0.813 -15.771  0.00  0.00    +0.015 A 
ATOM      4  C   UNL     1     -10.243  -0.538 -15.645  0.00  0.00    +0.001 A 
ATOM      5  C   UNL     1     -11.452  -1.007 -16.144  0.00  0.00    +0.001 A 
ATOM      6  C   UNL     1     -12.336  -0.128 -16.774  0.00  0.00    +0.009 A 
ENDROOT
BRANCH   1  12
ATOM      7  H   UNL     1     -16.443   4.952 -17.291  0.00  0.00    +0.156 HD
ATOM      8  N   UNL     1     -15.688   4.392 -16.926  0.00  0.00    -0.270 N 
ATOM      9  C   UNL     1     -15.429   4.314 -15.592  0.00  0.00    +0.118 C 
ATOM     10  S   UNL     1     -14.031   3.298 -15.319  0.00  0.00    -0.061 S 
ATOM     11  C   UNL     1     -13.877   2.924 -16.997  0.00  0.00    +0.077 C 
ATOM     12  C   UNL     1     -13.029   2.071 -17.586  0.00  0.00    +0.029 C 
ATOM     13  S   UNL     1     -16.324   5.090 -14.436  0.00  0.00    -0.027 S 
ATOM     14  C   UNL     1     -14.884   3.690 -17.779  0.00  0.00    +0.256 C 
ATOM     15  O   UNL     1     -14.977   3.708 -18.996  0.00  0.00    -0.269 OA
ENDBRANCH   1  12
BRANCH   2  16
ATOM     16  C   UNL     1     -10.434   3.150 -16.459  0.00  0.00    +0.337 C 
ATOM     17  O   UNL     1     -10.154   3.800 -17.449  0.00  0.00    -0.245 OA
BRANCH  16  18
ATOM     18  O   UNL     1     -10.403   3.711 -15.234  0.00  0.00    -0.477 OA
ATOM     19  H   UNL     1     -10.118   2.981 -14.647  0.00  0.00    +0.295 HD
ENDBRANCH  16  18
ENDBRANCH   2  16
TORSDOF 3
ENDMDL
MODEL 3
REMARK VINA RESULT:      -6.0     11.460     12.092
REMARK  Name = min_compound974.pdb
REMARK  3 active torsions:
REMARK  status: ('A' for Active; 'I' for Inactive)
REMARK    1  A    between atoms: _10  and  _18
REMARK    2  A    between atoms: _12  and  _15
REMARK    3  A    between atoms: _15  and  _17
REMARK                            x       y       z     vdW  Elec       q    Type
REMARK                         _______ _______ _______ _____ _____    ______ ____
ROOT
ATOM      1  C   UNL     1     -15.825   1.130  -4.946  0.00  0.00    -0.010 A 
ATOM      2  C   UNL     1     -14.723   0.252  -4.891  0.00  0.00    +0.066 A 
ATOM      3  C   UNL     1     -13.556   0.643  -4.209  0.00  0.00    +0.015 A 
ATOM      4  C   UNL     1     -13.475   1.894  -3.598  0.00  0.00    +0.001 A 
ATOM      5  C   UNL     1     -14.555   2.767  -3.660  0.00  0.00    +0.001 A 
ATOM      6  C   UNL     1     -15.721   2.388  -4.330  0.00  0.00    +0.009 A 
ENDROOT
BRANCH   1  12
ATOM      7  H   UNL     1     -19.843   1.560  -9.090  0.00  0.00    +0.156 HD
ATOM      8  N   UNL     1     -18.980   1.652  -8.576  0.00  0.00    -0.270 N 
ATOM      9  C   UNL     1     -17.962   2.440  -9.015  0.00  0.00    +0.118 C 
ATOM     10  S   UNL     1     -16.610   2.332  -7.910  0.00  0.00    -0.061 S 
ATOM     11  C   UNL     1     -17.475   1.298  -6.831  0.00  0.00    +0.077 C 
ATOM     12  C   UNL     1     -17.093   0.840  -5.632  0.00  0.00    +0.029 C 
ATOM     13  S   UNL     1     -18.032   3.343 -10.401  0.00  0.00    -0.027 S 
ATOM     14  C   UNL     1     -18.806   0.968  -7.406  0.00  0.00    +0.256 C 
ATOM     15  O   UNL     1     -19.617   0.195  -6.925  0.00  0.00    -0.269 OA
ENDBRANCH   1  12
BRANCH   2  16
ATOM     16  C   UNL     1     -14.743  -1.068  -5.576  0.00  0.00    +0.337 C 
ATOM     17  O   UNL     1     -14.957  -1.286  -6.754  0.00  0.00    -0.245 OA
BRANCH  16  18
ATOM     18  O   UNL     1     -14.521  -2.084  -4.718  0.00  0.00    -0.477 OA
ATOM     19  H   UNL     1     -14.721  -1.698  -3.840  0.00  0.00    +0.295 HD
ENDBRANCH  16  18
ENDBRANCH   2  16
TORSDOF 3
ENDMDL
MODEL 4
REMARK VINA RESULT:      -5.9      3.084      3.883
REMARK  Name = min_compound974.pdb
REMARK  3 active torsions:
REMARK  status: ('A' for Active; 'I' for Inactive)
REMARK    1  A    between atoms: _10  and  _18
REMARK    2  A    between atoms: _12  and  _15
REMARK    3  A    between atoms: _15  and  _17
REMARK                            x       y       z     vdW  Elec       q    Type
REMARK                         _______ _______ _______ _____ _____    ______ ____
ROOT
ATOM      1  C   UNL     1     -11.647   3.038 -17.195  0.00  0.00    -0.010 A 
ATOM      2  C   UNL     1     -12.311   1.977 -17.845  0.00  0.00    +0.066 A 
ATOM      3  C   UNL     1     -12.087   0.654 -17.422  0.00  0.00    +0.015 A 
ATOM      4  C   UNL     1     -11.206   0.381 -16.375  0.00  0.00    +0.001 A 
ATOM      5  C   UNL     1     -10.541   1.424 -15.740  0.00  0.00    +0.001 A 
ATOM      6  C   UNL     1     -10.759   2.742 -16.147  0.00  0.00    +0.009 A 
ENDROOT
BRANCH   1  12
ATOM      7  H   UNL     1     -14.233   8.209 -17.453  0.00  0.00    +0.156 HD
ATOM      8  N   UNL     1     -14.019   7.254 -17.211  0.00  0.00    -0.270 N 
ATOM      9  C   UNL     1     -14.862   6.496 -16.459  0.00  0.00    +0.118 C 
ATOM     10  S   UNL     1     -14.161   4.915 -16.196  0.00  0.00    -0.061 S 
ATOM     11  C   UNL     1     -12.789   5.273 -17.180  0.00  0.00    +0.077 C 
ATOM     12  C   UNL     1     -11.792   4.458 -17.548  0.00  0.00    +0.029 C 
ATOM     13  S   UNL     1     -16.319   7.035 -15.889  0.00  0.00    -0.027 S 
ATOM     14  C   UNL     1     -12.850   6.688 -17.636  0.00  0.00    +0.256 C 
ATOM     15  O   UNL     1     -11.988   7.267 -18.276  0.00  0.00    -0.269 OA
ENDBRANCH   1  12
BRANCH   2  16
ATOM     16  C   UNL     1     -13.214   2.215 -19.003  0.00  0.00    +0.337 C 
ATOM     17  O   UNL     1     -14.262   2.832 -19.007  0.00  0.00    -0.245 OA
BRANCH  16  18
ATOM     18  O   UNL     1     -12.761   1.618 -20.124  0.00  0.00    -0.477 OA
ATOM     19  H   UNL     1     -12.013   2.184 -20.406  0.00  0.00    +0.295 HD
ENDBRANCH  16  18
ENDBRANCH   2  16
TORSDOF 3
ENDMDL
MODEL 5
REMARK VINA RESULT:      -5.9     14.425     15.376
REMARK  Name = min_compound974.pdb
REMARK  3 active torsions:
REMARK  status: ('A' for Active; 'I' for Inactive)
REMARK    1  A    between atoms: _10  and  _18
REMARK    2  A    between atoms: _12  and  _15
REMARK    3  A    between atoms: _15  and  _17
REMARK                            x       y       z     vdW  Elec       q    Type
REMARK                         _______ _______ _______ _____ _____    ______ ____
ROOT
ATOM      1  C   UNL     1     -14.426  -0.597  -3.804  0.00  0.00    -0.010 A 
ATOM      2  C   UNL     1     -14.813  -0.114  -5.071  0.00  0.00    +0.066 A 
ATOM      3  C   UNL     1     -14.489   1.203  -5.442  0.00  0.00    +0.015 A 
ATOM      4  C   UNL     1     -13.799   2.040  -4.564  0.00  0.00    +0.001 A 
ATOM      5  C   UNL     1     -13.426   1.571  -3.310  0.00  0.00    +0.001 A 
ATOM      6  C   UNL     1     -13.737   0.263  -2.932  0.00  0.00    +0.009 A 
ENDROOT
BRANCH   1  12
ATOM      7  H   UNL     1     -17.391  -4.712  -1.015  0.00  0.00    +0.156 HD
ATOM      8  N   UNL     1     -17.138  -3.836  -1.446  0.00  0.00    -0.270 N 
ATOM      9  C   UNL     1     -17.928  -2.733  -1.353  0.00  0.00    +0.118 C 
ATOM     10  S   UNL     1     -17.212  -1.413  -2.250  0.00  0.00    -0.061 S 
ATOM     11  C   UNL     1     -15.817  -2.344  -2.658  0.00  0.00    +0.077 C 
ATOM     12  C   UNL     1     -14.710  -1.949  -3.300  0.00  0.00    +0.029 C 
ATOM     13  S   UNL     1     -19.354  -2.694  -0.512  0.00  0.00    -0.027 S 
ATOM     14  C   UNL     1     -15.974  -3.736  -2.157  0.00  0.00    +0.256 C 
ATOM     15  O   UNL     1     -15.200  -4.656  -2.356  0.00  0.00    -0.269 OA
ENDBRANCH   1  12
BRANCH   2  16
ATOM     16  C   UNL     1     -15.600  -0.951  -6.017  0.00  0.00    +0.337 C 
ATOM     17  O   UNL     1     -16.784  -0.853  -6.279  0.00  0.00    -0.245 OA
BRANCH  16  18
ATOM     18  O   UNL     1     -14.848  -1.919  -6.577  0.00  0.00    -0.477 OA
ATOM     19  H   UNL     1     -15.367  -2.736  -6.428  0.00  0.00    +0.295 HD
ENDBRANCH  16  18
ENDBRANCH   2  16
TORSDOF 3
ENDMDL
MODEL 6
REMARK VINA RESULT:      -5.8     14.272     15.084
REMARK  Name = min_compound974.pdb
REMARK  3 active torsions:
REMARK  status: ('A' for Active; 'I' for Inactive)
REMARK    1  A    between atoms: _10  and  _18
REMARK    2  A    between atoms: _12  and  _15
REMARK    3  A    between atoms: _15  and  _17
REMARK                            x       y       z     vdW  Elec       q    Type
REMARK                         _______ _______ _______ _____ _____    ______ ____
ROOT
ATOM      1  C   UNL     1     -15.954   0.536  -4.270  0.00  0.00    -0.010 A 
ATOM      2  C   UNL     1     -14.719  -0.104  -4.037  0.00  0.00    +0.066 A 
ATOM      3  C   UNL     1     -13.595   0.664  -3.680  0.00  0.00    +0.015 A 
ATOM      4  C   UNL     1     -13.688   2.052  -3.567  0.00  0.00    +0.001 A 
ATOM      5  C   UNL     1     -14.902   2.686  -3.807  0.00  0.00    +0.001 A 
ATOM      6  C   UNL     1     -16.025   1.934  -4.156  0.00  0.00    +0.009 A 
ENDROOT
BRANCH   1  12
ATOM      7  H   UNL     1     -20.634  -2.787  -3.522  0.00  0.00    +0.156 HD
ATOM      8  N   UNL     1     -19.808  -2.237  -3.342  0.00  0.00    -0.270 N 
ATOM      9  C   UNL     1     -19.249  -2.164  -2.104  0.00  0.00    +0.118 C 
ATOM     10  S   UNL     1     -17.866  -1.093  -2.140  0.00  0.00    -0.061 S 
ATOM     11  C   UNL     1     -18.012  -0.836  -3.841  0.00  0.00    +0.077 C 
ATOM     12  C   UNL     1     -17.195  -0.154  -4.654  0.00  0.00    +0.029 C 
ATOM     13  S   UNL     1     -19.830  -2.977  -0.784  0.00  0.00    -0.027 S 
ATOM     14  C   UNL     1     -19.223  -1.530  -4.355  0.00  0.00    +0.256 C 
ATOM     15  O   UNL     1     -19.647  -1.472  -5.497  0.00  0.00    -0.269 OA
ENDBRANCH   1  12
BRANCH   2  16
ATOM     16  C   UNL     1     -14.558  -1.573  -4.202  0.00  0.00    +0.337 C 
ATOM     17  O   UNL     1     -14.565  -2.420  -3.328  0.00  0.00    -0.245 OA
BRANCH  16  18
ATOM     18  O   UNL     1     -14.355  -1.915  -5.490  0.00  0.00    -0.477 OA
ATOM     19  H   UNL     1     -14.915  -2.709  -5.614  0.00  0.00    +0.295 HD
ENDBRANCH  16  18
ENDBRANCH   2  16
TORSDOF 3
ENDMDL
MODEL 7
REMARK VINA RESULT:      -5.7     11.454     12.139
REMARK  Name = min_compound974.pdb
REMARK  3 active torsions:
REMARK  status: ('A' for Active; 'I' for Inactive)
REMARK    1  A    between atoms: _10  and  _18
REMARK    2  A    between atoms: _12  and  _15
REMARK    3  A    between atoms: _15  and  _17
REMARK                            x       y       z     vdW  Elec       q    Type
REMARK                         _______ _______ _______ _____ _____    ______ ____
ROOT
ATOM      1  C   UNL     1     -14.697   1.231  -5.503  0.00  0.00    -0.010 A 
ATOM      2  C   UNL     1     -14.922  -0.098  -5.088  0.00  0.00    +0.066 A 
ATOM      3  C   UNL     1     -14.451  -0.522  -3.832  0.00  0.00    +0.015 A 
ATOM      4  C   UNL     1     -13.754   0.354  -3.000  0.00  0.00    +0.001 A 
ATOM      5  C   UNL     1     -13.522   1.662  -3.411  0.00  0.00    +0.001 A 
ATOM      6  C   UNL     1     -13.989   2.097  -4.653  0.00  0.00    +0.009 A 
ENDROOT
BRANCH   1  12
ATOM      7  H   UNL     1     -18.405   3.482  -9.335  0.00  0.00    +0.156 HD
ATOM      8  N   UNL     1     -18.002   3.140  -8.477  0.00  0.00    -0.270 N 
ATOM      9  C   UNL     1     -18.734   3.015  -7.337  0.00  0.00    +0.118 C 
ATOM     10  S   UNL     1     -17.714   2.440  -6.037  0.00  0.00    -0.061 S 
ATOM     11  C   UNL     1     -16.342   2.292  -7.075  0.00  0.00    +0.077 C 
ATOM     12  C   UNL     1     -15.133   1.791  -6.792  0.00  0.00    +0.029 C 
ATOM     13  S   UNL     1     -20.347   3.375  -7.237  0.00  0.00    -0.027 S 
ATOM     14  C   UNL     1     -16.680   2.794  -8.433  0.00  0.00    +0.256 C 
ATOM     15  O   UNL     1     -15.903   2.901  -9.367  0.00  0.00    -0.269 OA
ENDBRANCH   1  12
BRANCH   2  16
ATOM     16  C   UNL     1     -15.608  -1.084  -5.965  0.00  0.00    +0.337 C 
ATOM     17  O   UNL     1     -16.787  -1.110  -6.266  0.00  0.00    -0.245 OA
BRANCH  16  18
ATOM     18  O   UNL     1     -14.763  -2.036  -6.407  0.00  0.00    -0.477 OA
ATOM     19  H   UNL     1     -14.343  -2.376  -5.591  0.00  0.00    +0.295 HD
ENDBRANCH  16  18
ENDBRANCH   2  16
TORSDOF 3
ENDMDL
MODEL 8
REMARK VINA RESULT:      -5.7     12.591     13.269
REMARK  Name = min_compound974.pdb
REMARK  3 active torsions:
REMARK  status: ('A' for Active; 'I' for Inactive)
REMARK    1  A    between atoms: _10  and  _18
REMARK    2  A    between atoms: _12  and  _15
REMARK    3  A    between atoms: _15  and  _17
REMARK                            x       y       z     vdW  Elec       q    Type
REMARK                         _______ _______ _______ _____ _____    ______ ____
ROOT
ATOM      1  C   UNL     1     -15.710   1.745  -3.874  0.00  0.00    -0.010 A 
ATOM      2  C   UNL     1     -15.415   0.412  -3.520  0.00  0.00    +0.066 A 
ATOM      3  C   UNL     1     -14.099   0.063  -3.165  0.00  0.00    +0.015 A 
ATOM      4  C   UNL     1     -13.083   1.018  -3.169  0.00  0.00    +0.001 A 
ATOM      5  C   UNL     1     -13.368   2.331  -3.528  0.00  0.00    +0.001 A 
ATOM      6  C   UNL     1     -14.671   2.692  -3.878  0.00  0.00    +0.009 A 
ENDROOT
BRANCH   1  12
ATOM      7  H   UNL     1     -19.858   3.509  -7.505  0.00  0.00    +0.156 HD
ATOM      8  N   UNL     1     -18.998   3.127  -7.143  0.00  0.00    -0.270 N 
ATOM      9  C   UNL     1     -17.968   2.771  -7.958  0.00  0.00    +0.118 C 
ATOM     10  S   UNL     1     -16.660   2.107  -7.006  0.00  0.00    -0.061 S 
ATOM     11  C   UNL     1     -17.486   2.406  -5.520  0.00  0.00    +0.077 C 
ATOM     12  C   UNL     1     -17.040   2.232  -4.269  0.00  0.00    +0.029 C 
ATOM     13  S   UNL     1     -17.998   2.948  -9.604  0.00  0.00    -0.027 S 
ATOM     14  C   UNL     1     -18.844   2.946  -5.797  0.00  0.00    +0.256 C 
ATOM     15  O   UNL     1     -19.701   3.180  -4.961  0.00  0.00    -0.269 OA
ENDBRANCH   1  12
BRANCH   2  16
ATOM     16  C   UNL     1     -16.453  -0.652  -3.557  0.00  0.00    +0.337 C 
ATOM     17  O   UNL     1     -17.247  -0.940  -2.681  0.00  0.00    -0.245 OA
BRANCH  16  18
ATOM     18  O   UNL     1     -16.420  -1.346  -4.712  0.00  0.00    -0.477 OA
ATOM     19  H   UNL     1     -17.356  -1.366  -5.002  0.00  0.00    +0.295 HD
ENDBRANCH  16  18
ENDBRANCH   2  16
TORSDOF 3
ENDMDL
MODEL 9
REMARK VINA RESULT:      -5.7     15.662     16.881
REMARK  Name = min_compound974.pdb
REMARK  3 active torsions:
REMARK  status: ('A' for Active; 'I' for Inactive)
REMARK    1  A    between atoms: _10  and  _18
REMARK    2  A    between atoms: _12  and  _15
REMARK    3  A    between atoms: _15  and  _17
REMARK                            x       y       z     vdW  Elec       q    Type
REMARK                         _______ _______ _______ _____ _____    ______ ____
ROOT
ATOM      1  C   UNL     1     -15.435  -1.611  -2.066  0.00  0.00    -0.010 A 
ATOM      2  C   UNL     1     -15.572  -0.905  -3.279  0.00  0.00    +0.066 A 
ATOM      3  C   UNL     1     -16.757  -0.191  -3.537  0.00  0.00    +0.015 A 
ATOM      4  C   UNL     1     -17.801  -0.185  -2.612  0.00  0.00    +0.001 A 
ATOM      5  C   UNL     1     -17.674  -0.889  -1.420  0.00  0.00    +0.001 A 
ATOM      6  C   UNL     1     -16.501  -1.597  -1.149  0.00  0.00    +0.009 A 
ENDROOT
BRANCH   1  12
ATOM      7  H   UNL     1     -12.383  -6.387  -0.894  0.00  0.00    +0.156 HD
ATOM      8  N   UNL     1     -13.120  -5.769  -1.197  0.00  0.00    -0.270 N 
ATOM      9  C   UNL     1     -14.333  -6.237  -1.597  0.00  0.00    +0.118 C 
ATOM     10  S   UNL     1     -15.349  -4.903  -2.094  0.00  0.00    -0.061 S 
ATOM     11  C   UNL     1     -14.153  -3.732  -1.669  0.00  0.00    +0.077 C 
ATOM     12  C   UNL     1     -14.253  -2.397  -1.683  0.00  0.00    +0.029 C 
ATOM     13  S   UNL     1     -14.741  -7.842  -1.605  0.00  0.00    -0.027 S 
ATOM     14  C   UNL     1     -12.912  -4.418  -1.221  0.00  0.00    +0.256 C 
ATOM     15  O   UNL     1     -11.861  -3.872  -0.933  0.00  0.00    -0.269 OA
ENDBRANCH   1  12
BRANCH   2  16
ATOM     16  C   UNL     1     -14.510  -0.930  -4.320  0.00  0.00    +0.337 C 
ATOM     17  O   UNL     1     -13.728  -0.041  -4.598  0.00  0.00    -0.245 OA
BRANCH  16  18
ATOM     18  O   UNL     1     -14.505  -2.091  -5.004  0.00  0.00    -0.477 OA
ATOM     19  H   UNL     1     -15.199  -2.626  -4.566  0.00  0.00    +0.295 HD
ENDBRANCH  16  18
ENDBRANCH   2  16
TORSDOF 3
ENDMDL
