MODEL 1
REMARK VINA RESULT:      -7.2      0.000      0.000
REMARK  Name = min_compound918.pdb
REMARK  2 active torsions:
REMARK  status: ('A' for Active; 'I' for Inactive)
REMARK    1  A    between atoms: _11  and  _13
REMARK    2  A    between atoms: _12  and  _14
REMARK                            x       y       z     vdW  Elec       q    Type
REMARK                         _______ _______ _______ _____ _____    ______ ____
ROOT
ATOM      1  C   UNL     1     -10.712  -0.147 -17.386  0.00  0.00    +0.000 C 
ATOM      2  C   UNL     1      -9.749   1.032 -17.464  0.00  0.00    +0.000 C 
ATOM      3  C   UNL     1      -9.970   2.126 -16.424  0.00  0.00    +0.004 C 
ATOM      4  C   UNL     1     -10.996   3.165 -16.880  0.00  0.00    +0.048 C 
ATOM      5  C   UNL     1     -12.476   2.735 -16.841  0.00  0.00    +0.129 C 
ATOM      6  N   UNL     1     -13.242   3.785 -17.568  0.00  0.00    -0.238 NA
ATOM      7  C   UNL     1     -13.964   4.301 -16.614  0.00  0.00    +0.169 C 
ATOM      8  N   UNL     1     -13.823   3.794 -15.339  0.00  0.00    -0.212 N 
ATOM      9  N   UNL     1     -12.942   2.682 -15.435  0.00  0.00    -0.207 NA
ATOM     10  H   UNL     1     -13.470   1.824 -15.298  0.00  0.00    +0.147 HD
ATOM     11  C   UNL     1     -12.760   1.405 -17.580  0.00  0.00    +0.048 C 
ATOM     12  C   UNL     1     -12.143   0.152 -16.957  0.00  0.00    +0.004 C 
ENDROOT
BRANCH   8  13
ATOM     13  C   UNL     1     -14.903   3.725 -14.419  0.00  0.00    +0.052 A 
ATOM     14  C   UNL     1     -15.935   2.800 -14.639  0.00  0.00    +0.025 A 
ATOM     15  C   UNL     1     -17.006   2.697 -13.749  0.00  0.00    +0.002 A 
ATOM     16  C   UNL     1     -17.061   3.521 -12.626  0.00  0.00    +0.000 A 
ATOM     17  C   UNL     1     -16.045   4.444 -12.391  0.00  0.00    +0.002 A 
ATOM     18  C   UNL     1     -14.971   4.544 -13.280  0.00  0.00    +0.025 A 
ENDBRANCH   8  13
BRANCH   7  19
ATOM     19  S   UNL     1     -15.052   5.596 -17.026  0.00  0.00    -0.107 S 
ATOM     20  H   UNL     1     -15.607   5.659 -15.809  0.00  0.00    +0.110 HD
ENDBRANCH   7  19
TORSDOF 2
ENDMDL
MODEL 2
REMARK VINA RESULT:      -6.9      1.959      5.833
REMARK  Name = min_compound918.pdb
REMARK  2 active torsions:
REMARK  status: ('A' for Active; 'I' for Inactive)
REMARK    1  A    between atoms: _11  and  _13
REMARK    2  A    between atoms: _12  and  _14
REMARK                            x       y       z     vdW  Elec       q    Type
REMARK                         _______ _______ _______ _____ _____    ______ ____
ROOT
ATOM      1  C   UNL     1     -17.385   3.035 -15.525  0.00  0.00    +0.000 C 
ATOM      2  C   UNL     1     -17.301   4.097 -16.616  0.00  0.00    +0.000 C 
ATOM      3  C   UNL     1     -16.272   3.829 -17.711  0.00  0.00    +0.004 C 
ATOM      4  C   UNL     1     -14.883   4.353 -17.344  0.00  0.00    +0.048 C 
ATOM      5  C   UNL     1     -14.089   3.536 -16.305  0.00  0.00    +0.129 C 
ATOM      6  N   UNL     1     -12.916   4.367 -15.918  0.00  0.00    -0.238 NA
ATOM      7  C   UNL     1     -11.922   3.661 -16.380  0.00  0.00    +0.169 C 
ATOM      8  N   UNL     1     -12.206   2.481 -17.036  0.00  0.00    -0.212 N 
ATOM      9  N   UNL     1     -13.609   2.277 -16.924  0.00  0.00    -0.207 NA
ATOM     10  H   UNL     1     -13.786   1.509 -16.281  0.00  0.00    +0.147 HD
ATOM     11  C   UNL     1     -14.872   3.259 -14.999  0.00  0.00    +0.048 C 
ATOM     12  C   UNL     1     -16.087   2.340 -15.132  0.00  0.00    +0.004 C 
ENDROOT
BRANCH   8  13
ATOM     13  C   UNL     1     -11.351   1.349 -16.978  0.00  0.00    +0.052 A 
ATOM     14  C   UNL     1     -11.811   0.169 -16.373  0.00  0.00    +0.025 A 
ATOM     15  C   UNL     1     -11.000  -0.966 -16.310  0.00  0.00    +0.002 A 
ATOM     16  C   UNL     1      -9.715  -0.937 -16.848  0.00  0.00    +0.000 A 
ATOM     17  C   UNL     1      -9.242   0.225 -17.453  0.00  0.00    +0.002 A 
ATOM     18  C   UNL     1     -10.054   1.360 -17.521  0.00  0.00    +0.025 A 
ENDBRANCH   8  13
BRANCH   7  19
ATOM     19  S   UNL     1     -10.309   4.269 -16.135  0.00  0.00    -0.107 S 
ATOM     20  H   UNL     1      -9.855   3.842 -17.320  0.00  0.00    +0.110 HD
ENDBRANCH   7  19
TORSDOF 2
ENDMDL
MODEL 3
REMARK VINA RESULT:      -6.8      6.215      8.364
REMARK  Name = min_compound918.pdb
REMARK  2 active torsions:
REMARK  status: ('A' for Active; 'I' for Inactive)
REMARK    1  A    between atoms: _11  and  _13
REMARK    2  A    between atoms: _12  and  _14
REMARK                            x       y       z     vdW  Elec       q    Type
REMARK                         _______ _______ _______ _____ _____    ______ ____
ROOT
ATOM      1  C   UNL     1     -16.800   4.072 -13.317  0.00  0.00    +0.000 C 
ATOM      2  C   UNL     1     -16.270   5.380 -12.741  0.00  0.00    +0.000 C 
ATOM      3  C   UNL     1     -15.319   5.235 -11.557  0.00  0.00    +0.004 C 
ATOM      4  C   UNL     1     -16.060   5.157 -10.221  0.00  0.00    +0.048 C 
ATOM      5  C   UNL     1     -16.768   3.824  -9.902  0.00  0.00    +0.129 C 
ATOM      6  N   UNL     1     -17.624   4.074  -8.710  0.00  0.00    -0.238 NA
ATOM      7  C   UNL     1     -17.056   3.323  -7.809  0.00  0.00    +0.169 C 
ATOM      8  N   UNL     1     -15.938   2.599  -8.169  0.00  0.00    -0.212 N 
ATOM      9  N   UNL     1     -15.758   2.792  -9.567  0.00  0.00    -0.207 NA
ATOM     10  H   UNL     1     -15.993   1.934 -10.057  0.00  0.00    +0.147 HD
ATOM     11  C   UNL     1     -17.719   3.339 -11.023  0.00  0.00    +0.048 C 
ATOM     12  C   UNL     1     -17.048   2.933 -12.336  0.00  0.00    +0.004 C 
ENDROOT
BRANCH   8  13
ATOM     13  C   UNL     1     -15.642   1.325  -7.618  0.00  0.00    +0.052 A 
ATOM     14  C   UNL     1     -14.481   1.163  -6.847  0.00  0.00    +0.025 A 
ATOM     15  C   UNL     1     -14.165  -0.075  -6.280  0.00  0.00    +0.002 A 
ATOM     16  C   UNL     1     -15.006  -1.168  -6.479  0.00  0.00    +0.000 A 
ATOM     17  C   UNL     1     -16.163  -1.025  -7.241  0.00  0.00    +0.002 A 
ATOM     18  C   UNL     1     -16.481   0.213  -7.805  0.00  0.00    +0.025 A 
ENDBRANCH   8  13
BRANCH   7  19
ATOM     19  S   UNL     1     -17.754   3.296  -6.214  0.00  0.00    -0.107 S 
ATOM     20  H   UNL     1     -17.495   1.999  -6.007  0.00  0.00    +0.110 HD
ENDBRANCH   7  19
TORSDOF 2
ENDMDL
MODEL 4
REMARK VINA RESULT:      -6.8      0.950      1.556
REMARK  Name = min_compound918.pdb
REMARK  2 active torsions:
REMARK  status: ('A' for Active; 'I' for Inactive)
REMARK    1  A    between atoms: _11  and  _13
REMARK    2  A    between atoms: _12  and  _14
REMARK                            x       y       z     vdW  Elec       q    Type
REMARK                         _______ _______ _______ _____ _____    ______ ____
ROOT
ATOM      1  C   UNL     1     -10.586   1.184 -17.194  0.00  0.00    +0.000 C 
ATOM      2  C   UNL     1      -9.962   2.563 -17.378  0.00  0.00    +0.000 C 
ATOM      3  C   UNL     1     -10.349   3.601 -16.327  0.00  0.00    +0.004 C 
ATOM      4  C   UNL     1     -11.642   4.335 -16.682  0.00  0.00    +0.048 C 
ATOM      5  C   UNL     1     -12.956   3.552 -16.489  0.00  0.00    +0.129 C 
ATOM      6  N   UNL     1     -14.028   4.354 -17.141  0.00  0.00    -0.238 NA
ATOM      7  C   UNL     1     -14.760   4.704 -16.120  0.00  0.00    +0.169 C 
ATOM      8  N   UNL     1     -14.372   4.289 -14.863  0.00  0.00    -0.212 N 
ATOM      9  N   UNL     1     -13.254   3.429 -15.042  0.00  0.00    -0.207 NA
ATOM     10  H   UNL     1     -13.533   2.471 -14.847  0.00  0.00    +0.147 HD
ATOM     11  C   UNL     1     -12.967   2.170 -17.187  0.00  0.00    +0.048 C 
ATOM     12  C   UNL     1     -11.997   1.131 -16.622  0.00  0.00    +0.004 C 
ENDROOT
BRANCH   8  13
ATOM     13  C   UNL     1     -15.305   3.982 -13.837  0.00  0.00    +0.052 A 
ATOM     14  C   UNL     1     -15.251   4.687 -12.626  0.00  0.00    +0.025 A 
ATOM     15  C   UNL     1     -16.161   4.419 -11.600  0.00  0.00    +0.002 A 
ATOM     16  C   UNL     1     -17.136   3.439 -11.772  0.00  0.00    +0.000 A 
ATOM     17  C   UNL     1     -17.205   2.730 -12.969  0.00  0.00    +0.002 A 
ATOM     18  C   UNL     1     -16.298   3.001 -13.996  0.00  0.00    +0.025 A 
ENDBRANCH   8  13
BRANCH   7  19
ATOM     19  S   UNL     1     -16.173   5.673 -16.427  0.00  0.00    -0.107 S 
ATOM     20  H   UNL     1     -16.008   6.446 -15.346  0.00  0.00    +0.110 HD
ENDBRANCH   7  19
TORSDOF 2
ENDMDL
MODEL 5
REMARK VINA RESULT:      -6.7      2.528      4.773
REMARK  Name = min_compound918.pdb
REMARK  2 active torsions:
REMARK  status: ('A' for Active; 'I' for Inactive)
REMARK    1  A    between atoms: _11  and  _13
REMARK    2  A    between atoms: _12  and  _14
REMARK                            x       y       z     vdW  Elec       q    Type
REMARK                         _______ _______ _______ _____ _____    ______ ____
ROOT
ATOM      1  C   UNL     1      -9.869  -0.068 -15.733  0.00  0.00    +0.000 C 
ATOM      2  C   UNL     1     -11.188  -0.819 -15.873  0.00  0.00    +0.000 C 
ATOM      3  C   UNL     1     -12.107  -0.323 -16.986  0.00  0.00    +0.004 C 
ATOM      4  C   UNL     1     -13.013   0.820 -16.526  0.00  0.00    +0.048 C 
ATOM      5  C   UNL     1     -12.351   2.204 -16.364  0.00  0.00    +0.129 C 
ATOM      6  N   UNL     1     -13.341   3.069 -15.665  0.00  0.00    -0.238 NA
ATOM      7  C   UNL     1     -13.622   3.950 -16.583  0.00  0.00    +0.169 C 
ATOM      8  N   UNL     1     -13.003   3.839 -17.810  0.00  0.00    -0.212 N 
ATOM      9  N   UNL     1     -12.064   2.777 -17.701  0.00  0.00    -0.207 NA
ATOM     10  H   UNL     1     -11.123   3.160 -17.696  0.00  0.00    +0.147 HD
ATOM     11  C   UNL     1     -11.086   2.189 -15.474  0.00  0.00    +0.048 C 
ATOM     12  C   UNL     1      -9.885   1.426 -16.034  0.00  0.00    +0.004 C 
ENDROOT
BRANCH   8  13
ATOM     13  C   UNL     1     -12.658   4.969 -18.598  0.00  0.00    +0.052 A 
ATOM     14  C   UNL     1     -12.998   4.988 -19.959  0.00  0.00    +0.025 A 
ATOM     15  C   UNL     1     -12.684   6.088 -20.761  0.00  0.00    +0.002 A 
ATOM     16  C   UNL     1     -12.023   7.185 -20.211  0.00  0.00    +0.000 A 
ATOM     17  C   UNL     1     -11.680   7.185 -18.862  0.00  0.00    +0.002 A 
ATOM     18  C   UNL     1     -11.997   6.086 -18.059  0.00  0.00    +0.025 A 
ENDBRANCH   8  13
BRANCH   7  19
ATOM     19  S   UNL     1     -14.766   5.202 -16.185  0.00  0.00    -0.107 S 
ATOM     20  H   UNL     1     -14.314   5.363 -14.935  0.00  0.00    +0.110 HD
ENDBRANCH   7  19
TORSDOF 2
ENDMDL
MODEL 6
REMARK VINA RESULT:      -6.7      1.369      5.905
REMARK  Name = min_compound918.pdb
REMARK  2 active torsions:
REMARK  status: ('A' for Active; 'I' for Inactive)
REMARK    1  A    between atoms: _11  and  _13
REMARK    2  A    between atoms: _12  and  _14
REMARK                            x       y       z     vdW  Elec       q    Type
REMARK                         _______ _______ _______ _____ _____    ______ ____
ROOT
ATOM      1  C   UNL     1     -16.159   4.696 -12.738  0.00  0.00    +0.000 C 
ATOM      2  C   UNL     1     -17.362   3.980 -13.342  0.00  0.00    +0.000 C 
ATOM      3  C   UNL     1     -17.052   2.660 -14.043  0.00  0.00    +0.004 C 
ATOM      4  C   UNL     1     -16.659   2.857 -15.508  0.00  0.00    +0.048 C 
ATOM      5  C   UNL     1     -15.244   3.408 -15.775  0.00  0.00    +0.129 C 
ATOM      6  N   UNL     1     -15.193   3.762 -17.220  0.00  0.00    -0.238 NA
ATOM      7  C   UNL     1     -14.320   2.907 -17.675  0.00  0.00    +0.169 C 
ATOM      8  N   UNL     1     -13.762   2.008 -16.791  0.00  0.00    -0.212 N 
ATOM      9  N   UNL     1     -14.239   2.354 -15.497  0.00  0.00    -0.207 NA
ATOM     10  H   UNL     1     -13.480   2.761 -14.958  0.00  0.00    +0.147 HD
ATOM     11  C   UNL     1     -14.925   4.709 -15.000  0.00  0.00    +0.048 C 
ATOM     12  C   UNL     1     -14.834   4.574 -13.480  0.00  0.00    +0.004 C 
ENDROOT
BRANCH   8  13
ATOM     13  C   UNL     1     -12.427   1.539 -16.917  0.00  0.00    +0.052 A 
ATOM     14  C   UNL     1     -12.182   0.158 -16.932  0.00  0.00    +0.025 A 
ATOM     15  C   UNL     1     -10.882  -0.337 -17.067  0.00  0.00    +0.002 A 
ATOM     16  C   UNL     1      -9.809   0.544 -17.186  0.00  0.00    +0.000 A 
ATOM     17  C   UNL     1     -10.034   1.919 -17.175  0.00  0.00    +0.002 A 
ATOM     18  C   UNL     1     -11.334   2.414 -17.044  0.00  0.00    +0.025 A 
ENDBRANCH   8  13
BRANCH   7  19
ATOM     19  S   UNL     1     -13.930   2.968 -19.371  0.00  0.00    -0.107 S 
ATOM     20  H   UNL     1     -14.494   1.786 -19.651  0.00  0.00    +0.110 HD
ENDBRANCH   7  19
TORSDOF 2
ENDMDL
MODEL 7
REMARK VINA RESULT:      -6.6      3.279      5.513
REMARK  Name = min_compound918.pdb
REMARK  2 active torsions:
REMARK  status: ('A' for Active; 'I' for Inactive)
REMARK    1  A    between atoms: _11  and  _13
REMARK    2  A    between atoms: _12  and  _14
REMARK                            x       y       z     vdW  Elec       q    Type
REMARK                         _______ _______ _______ _____ _____    ______ ____
ROOT
ATOM      1  C   UNL     1      -9.258  -0.105 -16.634  0.00  0.00    +0.000 C 
ATOM      2  C   UNL     1     -10.402  -0.679 -15.805  0.00  0.00    +0.000 C 
ATOM      3  C   UNL     1     -11.729  -0.836 -16.542  0.00  0.00    +0.004 C 
ATOM      4  C   UNL     1     -12.574   0.438 -16.497  0.00  0.00    +0.048 C 
ATOM      5  C   UNL     1     -12.126   1.596 -17.412  0.00  0.00    +0.129 C 
ATOM      6  N   UNL     1     -12.917   2.789 -17.003  0.00  0.00    -0.238 NA
ATOM      7  C   UNL     1     -13.648   3.002 -18.061  0.00  0.00    +0.169 C 
ATOM      8  N   UNL     1     -13.509   2.149 -19.136  0.00  0.00    -0.212 N 
ATOM      9  N   UNL     1     -12.439   1.265 -18.823  0.00  0.00    -0.207 NA
ATOM     10  H   UNL     1     -11.634   1.496 -19.398  0.00  0.00    +0.147 HD
ATOM     11  C   UNL     1     -10.638   1.986 -17.241  0.00  0.00    +0.048 C 
ATOM     12  C   UNL     1      -9.619   0.936 -17.686  0.00  0.00    +0.004 C 
ENDROOT
BRANCH   8  13
ATOM     13  C   UNL     1     -13.657   2.582 -20.481  0.00  0.00    +0.052 A 
ATOM     14  C   UNL     1     -14.296   1.743 -21.406  0.00  0.00    +0.025 A 
ATOM     15  C   UNL     1     -14.469   2.143 -22.733  0.00  0.00    +0.002 A 
ATOM     16  C   UNL     1     -14.003   3.387 -23.154  0.00  0.00    +0.000 A 
ATOM     17  C   UNL     1     -13.367   4.233 -22.248  0.00  0.00    +0.002 A 
ATOM     18  C   UNL     1     -13.197   3.835 -20.920  0.00  0.00    +0.025 A 
ENDBRANCH   8  13
BRANCH   7  19
ATOM     19  S   UNL     1     -14.751   4.349 -18.031  0.00  0.00    -0.107 S 
ATOM     20  H   UNL     1     -15.290   4.017 -16.851  0.00  0.00    +0.110 HD
ENDBRANCH   7  19
TORSDOF 2
ENDMDL
MODEL 8
REMARK VINA RESULT:      -6.4      2.941      5.344
REMARK  Name = min_compound918.pdb
REMARK  2 active torsions:
REMARK  status: ('A' for Active; 'I' for Inactive)
REMARK    1  A    between atoms: _11  and  _13
REMARK    2  A    between atoms: _12  and  _14
REMARK                            x       y       z     vdW  Elec       q    Type
REMARK                         _______ _______ _______ _____ _____    ______ ____
ROOT
ATOM      1  C   UNL     1     -12.919   5.978 -21.916  0.00  0.00    +0.000 C 
ATOM      2  C   UNL     1     -12.595   7.209 -21.077  0.00  0.00    +0.000 C 
ATOM      3  C   UNL     1     -11.680   6.962 -19.881  0.00  0.00    +0.004 C 
ATOM      4  C   UNL     1     -12.455   6.537 -18.633  0.00  0.00    +0.048 C 
ATOM      5  C   UNL     1     -12.986   5.089 -18.610  0.00  0.00    +0.129 C 
ATOM      6  N   UNL     1     -13.914   4.997 -17.450  0.00  0.00    -0.238 NA
ATOM      7  C   UNL     1     -13.284   4.166 -16.668  0.00  0.00    +0.169 C 
ATOM      8  N   UNL     1     -12.065   3.672 -17.083  0.00  0.00    -0.212 N 
ATOM      9  N   UNL     1     -11.858   4.149 -18.406  0.00  0.00    -0.207 NA
ATOM     10  H   UNL     1     -11.955   3.377 -19.060  0.00  0.00    +0.147 HD
ATOM     11  C   UNL     1     -13.817   4.710 -19.859  0.00  0.00    +0.048 C 
ATOM     12  C   UNL     1     -13.047   4.650 -21.179  0.00  0.00    +0.004 C 
ENDROOT
BRANCH   8  13
ATOM     13  C   UNL     1     -11.619   2.363 -16.757  0.00  0.00    +0.052 A 
ATOM     14  C   UNL     1     -12.199   1.260 -17.400  0.00  0.00    +0.025 A 
ATOM     15  C   UNL     1     -11.776  -0.040 -17.112  0.00  0.00    +0.002 A 
ATOM     16  C   UNL     1     -10.768  -0.254 -16.175  0.00  0.00    +0.000 A 
ATOM     17  C   UNL     1     -10.179   0.830 -15.529  0.00  0.00    +0.002 A 
ATOM     18  C   UNL     1     -10.599   2.131 -15.819  0.00  0.00    +0.025 A 
ENDBRANCH   8  13
BRANCH   7  19
ATOM     19  S   UNL     1     -14.034   3.747 -15.153  0.00  0.00    -0.107 S 
ATOM     20  H   UNL     1     -14.604   2.630 -15.622  0.00  0.00    +0.110 HD
ENDBRANCH   7  19
TORSDOF 2
ENDMDL
MODEL 9
REMARK VINA RESULT:      -6.4      3.264      5.766
REMARK  Name = min_compound918.pdb
REMARK  2 active torsions:
REMARK  status: ('A' for Active; 'I' for Inactive)
REMARK    1  A    between atoms: _11  and  _13
REMARK    2  A    between atoms: _12  and  _14
REMARK                            x       y       z     vdW  Elec       q    Type
REMARK                         _______ _______ _______ _____ _____    ______ ____
ROOT
ATOM      1  C   UNL     1     -16.204   4.700 -19.853  0.00  0.00    +0.000 C 
ATOM      2  C   UNL     1     -15.227   5.671 -20.506  0.00  0.00    +0.000 C 
ATOM      3  C   UNL     1     -13.819   5.126 -20.735  0.00  0.00    +0.004 C 
ATOM      4  C   UNL     1     -12.916   5.317 -19.516  0.00  0.00    +0.048 C 
ATOM      5  C   UNL     1     -13.160   4.373 -18.321  0.00  0.00    +0.129 C 
ATOM      6  N   UNL     1     -12.367   4.915 -17.184  0.00  0.00    -0.238 NA
ATOM      7  C   UNL     1     -11.480   3.977 -17.003  0.00  0.00    +0.169 C 
ATOM      8  N   UNL     1     -11.515   2.875 -17.832  0.00  0.00    -0.212 N 
ATOM      9  N   UNL     1     -12.668   3.014 -18.652  0.00  0.00    -0.207 NA
ATOM     10  H   UNL     1     -13.368   2.335 -18.365  0.00  0.00    +0.147 HD
ATOM     11  C   UNL     1     -14.631   4.339 -17.843  0.00  0.00    +0.048 C 
ATOM     12  C   UNL     1     -15.637   3.731 -18.823  0.00  0.00    +0.004 C 
ENDROOT
BRANCH   8  13
ATOM     13  C   UNL     1     -11.150   1.574 -17.392  0.00  0.00    +0.052 A 
ATOM     14  C   UNL     1     -12.134   0.729 -16.857  0.00  0.00    +0.025 A 
ATOM     15  C   UNL     1     -11.813  -0.560 -16.426  0.00  0.00    +0.002 A 
ATOM     16  C   UNL     1     -10.501  -1.020 -16.521  0.00  0.00    +0.000 A 
ATOM     17  C   UNL     1      -9.512  -0.196 -17.051  0.00  0.00    +0.002 A 
ATOM     18  C   UNL     1      -9.834   1.093 -17.486  0.00  0.00    +0.025 A 
ENDBRANCH   8  13
BRANCH   7  19
ATOM     19  S   UNL     1     -10.316   4.192 -15.726  0.00  0.00    -0.107 S 
ATOM     20  H   UNL     1     -10.988   5.189 -15.138  0.00  0.00    +0.110 HD
ENDBRANCH   7  19
TORSDOF 2
ENDMDL
