MODEL 1
REMARK VINA RESULT:      -6.5      0.000      0.000
REMARK  Name = min_compound916.pdb
REMARK  6 active torsions:
REMARK  status: ('A' for Active; 'I' for Inactive)
REMARK    1  A    between atoms: _6  and  _7
REMARK    2  A    between atoms: _7  and  _15
REMARK    3  A    between atoms: _8  and  _9
REMARK    4  A    between atoms: _8  and  _18
REMARK    5  A    between atoms: _15  and  _16
REMARK    6  A    between atoms: _17  and  _18
REMARK                            x       y       z     vdW  Elec       q    Type
REMARK                         _______ _______ _______ _____ _____    ______ ____
ROOT
ATOM      1  C   UNL     1     -14.843   2.538 -16.116  0.00  0.00    -0.019 C 
ATOM      2  C   UNL     1     -13.649   3.063 -15.793  0.00  0.00    -0.019 C 
ENDROOT
BRANCH   1   3
ATOM      3  C   UNL     1     -15.947   2.243 -15.146  0.00  0.00    +0.102 C 
BRANCH   3   4
ATOM      4  S   UNL     1     -16.792   3.793 -14.723  0.00  0.00    -0.102 S 
BRANCH   4   8
ATOM      5  C   UNL     1     -15.862   3.965 -10.307  0.00  0.00    +0.020 A 
ATOM      6  C   UNL     1     -15.163   4.675 -11.267  0.00  0.00    +0.112 A 
ATOM      7  N   UNL     1     -15.434   4.618 -12.588  0.00  0.00    -0.249 NA
ATOM      8  C   UNL     1     -16.457   3.826 -12.979  0.00  0.00    +0.097 A 
ATOM      9  C   UNL     1     -17.216   3.083 -12.082  0.00  0.00    +0.035 A 
ATOM     10  C   UNL     1     -16.908   3.152 -10.726  0.00  0.00    +0.004 A 
ENDBRANCH   4   8
ENDBRANCH   3   4
ENDBRANCH   1   3
BRANCH   2  11
ATOM     11  C   UNL     1     -12.583   3.364 -16.804  0.00  0.00    +0.102 C 
BRANCH  11  12
ATOM     12  S   UNL     1     -12.670   2.168 -18.162  0.00  0.00    -0.102 S 
BRANCH  12  13
ATOM     13  C   UNL     1     -11.529   0.978 -17.495  0.00  0.00    +0.097 A 
ATOM     14  N   UNL     1     -10.215   1.180 -17.743  0.00  0.00    -0.249 NA
ATOM     15  C   UNL     1      -9.347   0.278 -17.239  0.00  0.00    +0.112 A 
ATOM     16  C   UNL     1      -9.727  -0.813 -16.477  0.00  0.00    +0.020 A 
ATOM     17  C   UNL     1     -11.081  -0.999 -16.227  0.00  0.00    +0.004 A 
ATOM     18  C   UNL     1     -12.001  -0.094 -16.750  0.00  0.00    +0.035 A 
ENDBRANCH  12  13
ENDBRANCH  11  12
ENDBRANCH   2  11
TORSDOF 6
ENDMDL
MODEL 2
REMARK VINA RESULT:      -6.2      0.955      7.489
REMARK  Name = min_compound916.pdb
REMARK  6 active torsions:
REMARK  status: ('A' for Active; 'I' for Inactive)
REMARK    1  A    between atoms: _6  and  _7
REMARK    2  A    between atoms: _7  and  _15
REMARK    3  A    between atoms: _8  and  _9
REMARK    4  A    between atoms: _8  and  _18
REMARK    5  A    between atoms: _15  and  _16
REMARK    6  A    between atoms: _17  and  _18
REMARK                            x       y       z     vdW  Elec       q    Type
REMARK                         _______ _______ _______ _____ _____    ______ ____
ROOT
ATOM      1  C   UNL     1     -14.204   3.230 -16.563  0.00  0.00    -0.019 C 
ATOM      2  C   UNL     1     -14.672   2.261 -15.757  0.00  0.00    -0.019 C 
ENDROOT
BRANCH   1   3
ATOM      3  C   UNL     1     -12.824   3.277 -17.144  0.00  0.00    +0.102 C 
BRANCH   3   4
ATOM      4  S   UNL     1     -12.671   1.985 -18.410  0.00  0.00    -0.102 S 
BRANCH   4   8
ATOM      5  C   UNL     1      -9.937  -0.864 -16.217  0.00  0.00    +0.020 A 
ATOM      6  C   UNL     1     -11.317  -0.941 -16.177  0.00  0.00    +0.112 A 
ATOM      7  N   UNL     1     -12.136  -0.085 -16.824  0.00  0.00    -0.249 NA
ATOM      8  C   UNL     1     -11.559   0.892 -17.559  0.00  0.00    +0.097 A 
ATOM      9  C   UNL     1     -10.181   1.039 -17.661  0.00  0.00    +0.035 A 
ATOM     10  C   UNL     1      -9.360   0.149 -16.973  0.00  0.00    +0.004 A 
ENDBRANCH   4   8
ENDBRANCH   3   4
ENDBRANCH   1   3
BRANCH   2  11
ATOM     11  C   UNL     1     -16.071   2.244 -15.219  0.00  0.00    +0.102 C 
BRANCH  11  12
ATOM     12  S   UNL     1     -16.628   3.940 -14.907  0.00  0.00    -0.102 S 
BRANCH  12  13
ATOM     13  C   UNL     1     -16.305   3.972 -13.159  0.00  0.00    +0.097 A 
ATOM     14  N   UNL     1     -17.103   3.215 -12.372  0.00  0.00    -0.249 NA
ATOM     15  C   UNL     1     -16.859   3.239 -11.044  0.00  0.00    +0.112 A 
ATOM     16  C   UNL     1     -15.839   3.970 -10.462  0.00  0.00    +0.020 A 
ATOM     17  C   UNL     1     -15.025   4.735 -11.289  0.00  0.00    +0.004 A 
ATOM     18  C   UNL     1     -15.264   4.744 -12.660  0.00  0.00    +0.035 A 
ENDBRANCH  12  13
ENDBRANCH  11  12
ENDBRANCH   2  11
TORSDOF 6
ENDMDL
MODEL 3
REMARK VINA RESULT:      -6.1      8.266     10.219
REMARK  Name = min_compound916.pdb
REMARK  6 active torsions:
REMARK  status: ('A' for Active; 'I' for Inactive)
REMARK    1  A    between atoms: _6  and  _7
REMARK    2  A    between atoms: _7  and  _15
REMARK    3  A    between atoms: _8  and  _9
REMARK    4  A    between atoms: _8  and  _18
REMARK    5  A    between atoms: _15  and  _16
REMARK    6  A    between atoms: _17  and  _18
REMARK                            x       y       z     vdW  Elec       q    Type
REMARK                         _______ _______ _______ _____ _____    ______ ____
ROOT
ATOM      1  C   UNL     1     -18.601   2.449  -5.584  0.00  0.00    -0.019 C 
ATOM      2  C   UNL     1     -18.141   3.033  -6.704  0.00  0.00    -0.019 C 
ENDROOT
BRANCH   1   3
ATOM      3  C   UNL     1     -18.238   2.855  -4.188  0.00  0.00    +0.102 C 
BRANCH   3   4
ATOM      4  S   UNL     1     -16.630   3.696  -4.217  0.00  0.00    -0.102 S 
BRANCH   4   8
ATOM      5  C   UNL     1     -14.074   0.124  -3.165  0.00  0.00    +0.020 A 
ATOM      6  C   UNL     1     -15.452   0.077  -3.272  0.00  0.00    +0.112 A 
ATOM      7  N   UNL     1     -16.218   1.145  -3.577  0.00  0.00    -0.249 NA
ATOM      8  C   UNL     1     -15.587   2.320  -3.800  0.00  0.00    +0.097 A 
ATOM      9  C   UNL     1     -14.206   2.456  -3.721  0.00  0.00    +0.035 A 
ATOM     10  C   UNL     1     -13.441   1.340  -3.393  0.00  0.00    +0.004 A 
ENDBRANCH   4   8
ENDBRANCH   3   4
ENDBRANCH   1   3
BRANCH   2  11
ATOM     11  C   UNL     1     -18.553   2.607  -8.082  0.00  0.00    +0.102 C 
BRANCH  11  12
ATOM     12  S   UNL     1     -17.086   2.417  -9.129  0.00  0.00    -0.102 S 
BRANCH  12  13
ATOM     13  C   UNL     1     -16.279   1.157  -8.169  0.00  0.00    +0.097 A 
ATOM     14  N   UNL     1     -16.919  -0.029  -8.048  0.00  0.00    -0.249 NA
ATOM     15  C   UNL     1     -16.308  -0.987  -7.319  0.00  0.00    +0.112 A 
ATOM     16  C   UNL     1     -15.072  -0.825  -6.717  0.00  0.00    +0.020 A 
ATOM     17  C   UNL     1     -14.428   0.397  -6.859  0.00  0.00    +0.004 A 
ATOM     18  C   UNL     1     -15.042   1.410  -7.590  0.00  0.00    +0.035 A 
ENDBRANCH  12  13
ENDBRANCH  11  12
ENDBRANCH   2  11
TORSDOF 6
ENDMDL
MODEL 4
REMARK VINA RESULT:      -6.1      8.176     10.967
REMARK  Name = min_compound916.pdb
REMARK  6 active torsions:
REMARK  status: ('A' for Active; 'I' for Inactive)
REMARK    1  A    between atoms: _6  and  _7
REMARK    2  A    between atoms: _7  and  _15
REMARK    3  A    between atoms: _8  and  _9
REMARK    4  A    between atoms: _8  and  _18
REMARK    5  A    between atoms: _15  and  _16
REMARK    6  A    between atoms: _17  and  _18
REMARK                            x       y       z     vdW  Elec       q    Type
REMARK                         _______ _______ _______ _____ _____    ______ ____
ROOT
ATOM      1  C   UNL     1     -17.531   3.185  -6.501  0.00  0.00    -0.019 C 
ATOM      2  C   UNL     1     -18.225   3.597  -5.426  0.00  0.00    -0.019 C 
ENDROOT
BRANCH   1   3
ATOM      3  C   UNL     1     -17.848   3.545  -7.921  0.00  0.00    +0.102 C 
BRANCH   3   4
ATOM      4  S   UNL     1     -16.480   3.007  -8.986  0.00  0.00    -0.102 S 
BRANCH   4   8
ATOM      5  C   UNL     1     -15.405  -0.815  -6.834  0.00  0.00    +0.020 A 
ATOM      6  C   UNL     1     -16.591  -0.629  -7.522  0.00  0.00    +0.112 A 
ATOM      7  N   UNL     1     -16.917   0.515  -8.159  0.00  0.00    -0.249 NA
ATOM      8  C   UNL     1     -16.020   1.525  -8.122  0.00  0.00    +0.097 A 
ATOM      9  C   UNL     1     -14.802   1.423  -7.459  0.00  0.00    +0.035 A 
ATOM     10  C   UNL     1     -14.496   0.234  -6.801  0.00  0.00    +0.004 A 
ENDBRANCH   4   8
ENDBRANCH   3   4
ENDBRANCH   1   3
BRANCH   2  11
ATOM     11  C   UNL     1     -17.856   3.230  -4.020  0.00  0.00    +0.102 C 
BRANCH  11  12
ATOM     12  S   UNL     1     -17.724   1.429  -3.871  0.00  0.00    -0.102 S 
BRANCH  12  13
ATOM     13  C   UNL     1     -15.961   1.343  -3.658  0.00  0.00    +0.097 A 
ATOM     14  N   UNL     1     -15.442   0.146  -3.302  0.00  0.00    -0.249 NA
ATOM     15  C   UNL     1     -14.104   0.079  -3.139  0.00  0.00    +0.112 A 
ATOM     16  C   UNL     1     -13.250   1.150  -3.335  0.00  0.00    +0.020 A 
ATOM     17  C   UNL     1     -13.802   2.369  -3.707  0.00  0.00    +0.004 A 
ATOM     18  C   UNL     1     -15.181   2.473  -3.865  0.00  0.00    +0.035 A 
ENDBRANCH  12  13
ENDBRANCH  11  12
ENDBRANCH   2  11
TORSDOF 6
ENDMDL
MODEL 5
REMARK VINA RESULT:      -6.1      5.384      9.238
REMARK  Name = min_compound916.pdb
REMARK  6 active torsions:
REMARK  status: ('A' for Active; 'I' for Inactive)
REMARK    1  A    between atoms: _6  and  _7
REMARK    2  A    between atoms: _7  and  _15
REMARK    3  A    between atoms: _8  and  _9
REMARK    4  A    between atoms: _8  and  _18
REMARK    5  A    between atoms: _15  and  _16
REMARK    6  A    between atoms: _17  and  _18
REMARK                            x       y       z     vdW  Elec       q    Type
REMARK                         _______ _______ _______ _____ _____    ______ ____
ROOT
ATOM      1  C   UNL     1     -16.442   2.381  -8.617  0.00  0.00    -0.019 C 
ATOM      2  C   UNL     1     -16.822   1.135  -8.284  0.00  0.00    -0.019 C 
ENDROOT
BRANCH   1   3
ATOM      3  C   UNL     1     -17.327   3.413  -9.247  0.00  0.00    +0.102 C 
BRANCH   3   4
ATOM      4  S   UNL     1     -16.291   4.703  -9.994  0.00  0.00    -0.102 S 
BRANCH   4   8
ATOM      5  C   UNL     1     -16.008   3.165 -14.231  0.00  0.00    +0.020 A 
ATOM      6  C   UNL     1     -15.119   4.072 -13.682  0.00  0.00    +0.112 A 
ATOM      7  N   UNL     1     -15.207   4.539 -12.419  0.00  0.00    -0.249 NA
ATOM      8  C   UNL     1     -16.221   4.077 -11.655  0.00  0.00    +0.097 A 
ATOM      9  C   UNL     1     -17.156   3.161 -12.122  0.00  0.00    +0.035 A 
ATOM     10  C   UNL     1     -17.048   2.704 -13.433  0.00  0.00    +0.004 A 
ENDBRANCH   4   8
ENDBRANCH   3   4
ENDBRANCH   1   3
BRANCH   2  11
ATOM     11  C   UNL     1     -15.906   0.143  -7.631  0.00  0.00    +0.102 C 
BRANCH  11  12
ATOM     12  S   UNL     1     -14.360   0.958  -7.154  0.00  0.00    -0.102 S 
BRANCH  12  13
ATOM     13  C   UNL     1     -14.309   0.387  -5.471  0.00  0.00    +0.097 A 
ATOM     14  N   UNL     1     -14.713  -0.883  -5.239  0.00  0.00    -0.249 NA
ATOM     15  C   UNL     1     -14.676  -1.318  -3.962  0.00  0.00    +0.112 A 
ATOM     16  C   UNL     1     -14.233  -0.549  -2.899  0.00  0.00    +0.020 A 
ATOM     17  C   UNL     1     -13.816   0.751  -3.159  0.00  0.00    +0.004 A 
ATOM     18  C   UNL     1     -13.860   1.232  -4.465  0.00  0.00    +0.035 A 
ENDBRANCH  12  13
ENDBRANCH  11  12
ENDBRANCH   2  11
TORSDOF 6
ENDMDL
MODEL 6
REMARK VINA RESULT:      -6.0      5.408      9.646
REMARK  Name = min_compound916.pdb
REMARK  6 active torsions:
REMARK  status: ('A' for Active; 'I' for Inactive)
REMARK    1  A    between atoms: _6  and  _7
REMARK    2  A    between atoms: _7  and  _15
REMARK    3  A    between atoms: _8  and  _9
REMARK    4  A    between atoms: _8  and  _18
REMARK    5  A    between atoms: _15  and  _16
REMARK    6  A    between atoms: _17  and  _18
REMARK                            x       y       z     vdW  Elec       q    Type
REMARK                         _______ _______ _______ _____ _____    ______ ____
ROOT
ATOM      1  C   UNL     1     -16.425   1.473  -8.225  0.00  0.00    -0.019 C 
ATOM      2  C   UNL     1     -16.603   0.164  -7.976  0.00  0.00    -0.019 C 
ENDROOT
BRANCH   1   3
ATOM      3  C   UNL     1     -17.284   2.304  -9.128  0.00  0.00    +0.102 C 
BRANCH   3   4
ATOM      4  S   UNL     1     -16.465   3.897  -9.421  0.00  0.00    -0.102 S 
BRANCH   4   8
ATOM      5  C   UNL     1     -15.911   3.706 -13.900  0.00  0.00    +0.020 A 
ATOM      6  C   UNL     1     -15.095   4.438 -13.056  0.00  0.00    +0.112 A 
ATOM      7  N   UNL     1     -15.265   4.504 -11.718  0.00  0.00    -0.249 NA
ATOM      8  C   UNL     1     -16.288   3.799 -11.186  0.00  0.00    +0.097 A 
ATOM      9  C   UNL     1     -17.152   3.031 -11.958  0.00  0.00    +0.035 A 
ATOM     10  C   UNL     1     -16.961   2.991 -13.337  0.00  0.00    +0.004 A 
ENDBRANCH   4   8
ENDBRANCH   3   4
ENDBRANCH   1   3
BRANCH   2  11
ATOM     11  C   UNL     1     -15.730  -0.622  -7.044  0.00  0.00    +0.102 C 
BRANCH  11  12
ATOM     12  S   UNL     1     -16.469  -0.651  -5.390  0.00  0.00    -0.102 S 
BRANCH  12  13
ATOM     13  C   UNL     1     -15.403   0.557  -4.639  0.00  0.00    +0.097 A 
ATOM     14  N   UNL     1     -15.870   1.824  -4.558  0.00  0.00    -0.249 NA
ATOM     15  C   UNL     1     -15.061   2.743  -3.989  0.00  0.00    +0.112 A 
ATOM     16  C   UNL     1     -13.808   2.454  -3.476  0.00  0.00    +0.020 A 
ATOM     17  C   UNL     1     -13.350   1.145  -3.563  0.00  0.00    +0.004 A 
ATOM     18  C   UNL     1     -14.155   0.179  -4.161  0.00  0.00    +0.035 A 
ENDBRANCH  12  13
ENDBRANCH  11  12
ENDBRANCH   2  11
TORSDOF 6
ENDMDL
MODEL 7
REMARK VINA RESULT:      -5.9      5.247      8.174
REMARK  Name = min_compound916.pdb
REMARK  6 active torsions:
REMARK  status: ('A' for Active; 'I' for Inactive)
REMARK    1  A    between atoms: _6  and  _7
REMARK    2  A    between atoms: _7  and  _15
REMARK    3  A    between atoms: _8  and  _9
REMARK    4  A    between atoms: _8  and  _18
REMARK    5  A    between atoms: _15  and  _16
REMARK    6  A    between atoms: _17  and  _18
REMARK                            x       y       z     vdW  Elec       q    Type
REMARK                         _______ _______ _______ _____ _____    ______ ____
ROOT
ATOM      1  C   UNL     1     -16.749   1.429  -8.605  0.00  0.00    -0.019 C 
ATOM      2  C   UNL     1     -16.587   2.762  -8.648  0.00  0.00    -0.019 C 
ENDROOT
BRANCH   1   3
ATOM      3  C   UNL     1     -16.110   0.514  -7.605  0.00  0.00    +0.102 C 
BRANCH   3   4
ATOM      4  S   UNL     1     -14.442   1.122  -7.229  0.00  0.00    -0.102 S 
BRANCH   4   8
ATOM      5  C   UNL     1     -14.186  -0.326  -2.959  0.00  0.00    +0.020 A 
ATOM      6  C   UNL     1     -14.726  -1.072  -3.991  0.00  0.00    +0.112 A 
ATOM      7  N   UNL     1     -14.811  -0.637  -5.266  0.00  0.00    -0.249 NA
ATOM      8  C   UNL     1     -14.327   0.595  -5.537  0.00  0.00    +0.097 A 
ATOM      9  C   UNL     1     -13.762   1.409  -4.562  0.00  0.00    +0.035 A 
ATOM     10  C   UNL     1     -13.697   0.941  -3.253  0.00  0.00    +0.004 A 
ENDBRANCH   4   8
ENDBRANCH   3   4
ENDBRANCH   1   3
BRANCH   2  11
ATOM     11  C   UNL     1     -17.268   3.641  -9.655  0.00  0.00    +0.102 C 
BRANCH  11  12
ATOM     12  S   UNL     1     -16.071   4.802 -10.364  0.00  0.00    -0.102 S 
BRANCH  12  13
ATOM     13  C   UNL     1     -16.056   4.139 -12.014  0.00  0.00    +0.097 A 
ATOM     14  N   UNL     1     -15.102   4.601 -12.854  0.00  0.00    -0.249 NA
ATOM     15  C   UNL     1     -15.090   4.100 -14.107  0.00  0.00    +0.112 A 
ATOM     16  C   UNL     1     -15.977   3.139 -14.561  0.00  0.00    +0.020 A 
ATOM     17  C   UNL     1     -16.945   2.672 -13.680  0.00  0.00    +0.004 A 
ATOM     18  C   UNL     1     -16.993   3.185 -12.386  0.00  0.00    +0.035 A 
ENDBRANCH  12  13
ENDBRANCH  11  12
ENDBRANCH   2  11
TORSDOF 6
ENDMDL
MODEL 8
REMARK VINA RESULT:      -5.8      2.206      6.602
REMARK  Name = min_compound916.pdb
REMARK  6 active torsions:
REMARK  status: ('A' for Active; 'I' for Inactive)
REMARK    1  A    between atoms: _6  and  _7
REMARK    2  A    between atoms: _7  and  _15
REMARK    3  A    between atoms: _8  and  _9
REMARK    4  A    between atoms: _8  and  _18
REMARK    5  A    between atoms: _15  and  _16
REMARK    6  A    between atoms: _17  and  _18
REMARK                            x       y       z     vdW  Elec       q    Type
REMARK                         _______ _______ _______ _____ _____    ______ ____
ROOT
ATOM      1  C   UNL     1     -12.038   4.479 -17.760  0.00  0.00    -0.019 C 
ATOM      2  C   UNL     1     -12.695   5.587 -17.380  0.00  0.00    -0.019 C 
ENDROOT
BRANCH   1   3
ATOM      3  C   UNL     1     -10.686   4.064 -17.263  0.00  0.00    +0.102 C 
BRANCH   3   4
ATOM      4  S   UNL     1     -10.843   3.465 -15.557  0.00  0.00    -0.102 S 
BRANCH   4   8
ATOM      5  C   UNL     1     -11.071  -0.979 -16.331  0.00  0.00    +0.020 A 
ATOM      6  C   UNL     1      -9.964  -0.349 -15.792  0.00  0.00    +0.112 A 
ATOM      7  N   UNL     1      -9.890   0.980 -15.568  0.00  0.00    -0.249 NA
ATOM      8  C   UNL     1     -10.973   1.724 -15.884  0.00  0.00    +0.097 A 
ATOM      9  C   UNL     1     -12.130   1.174 -16.424  0.00  0.00    +0.035 A 
ATOM     10  C   UNL     1     -12.175  -0.198 -16.655  0.00  0.00    +0.004 A 
ENDBRANCH   4   8
ENDBRANCH   3   4
ENDBRANCH   1   3
BRANCH   2  11
ATOM     11  C   UNL     1     -14.060   5.949 -17.888  0.00  0.00    +0.102 C 
BRANCH  11  12
ATOM     12  S   UNL     1     -15.055   6.632 -16.538  0.00  0.00    -0.102 S 
BRANCH  12  13
ATOM     13  C   UNL     1     -15.435   5.095 -15.730  0.00  0.00    +0.097 A 
ATOM     14  N   UNL     1     -15.414   5.088 -14.378  0.00  0.00    -0.249 NA
ATOM     15  C   UNL     1     -15.701   3.922 -13.763  0.00  0.00    +0.112 A 
ATOM     16  C   UNL     1     -16.031   2.757 -14.435  0.00  0.00    +0.020 A 
ATOM     17  C   UNL     1     -16.054   2.787 -15.824  0.00  0.00    +0.004 A 
ATOM     18  C   UNL     1     -15.744   3.972 -16.486  0.00  0.00    +0.035 A 
ENDBRANCH  12  13
ENDBRANCH  11  12
ENDBRANCH   2  11
TORSDOF 6
ENDMDL
MODEL 9
REMARK VINA RESULT:      -5.8      4.773      7.453
REMARK  Name = min_compound916.pdb
REMARK  6 active torsions:
REMARK  status: ('A' for Active; 'I' for Inactive)
REMARK    1  A    between atoms: _6  and  _7
REMARK    2  A    between atoms: _7  and  _15
REMARK    3  A    between atoms: _8  and  _9
REMARK    4  A    between atoms: _8  and  _18
REMARK    5  A    between atoms: _15  and  _16
REMARK    6  A    between atoms: _17  and  _18
REMARK                            x       y       z     vdW  Elec       q    Type
REMARK                         _______ _______ _______ _____ _____    ______ ____
ROOT
ATOM      1  C   UNL     1     -12.373   4.902 -17.759  0.00  0.00    -0.019 C 
ATOM      2  C   UNL     1     -12.081   6.211 -17.847  0.00  0.00    -0.019 C 
ENDROOT
BRANCH   1   3
ATOM      3  C   UNL     1     -12.590   4.151 -16.481  0.00  0.00    +0.102 C 
BRANCH   3   4
ATOM      4  S   UNL     1     -13.465   2.603 -16.846  0.00  0.00    -0.102 S 
BRANCH   4   8
ATOM      5  C   UNL     1     -10.243  -0.408 -15.874  0.00  0.00    +0.020 A 
ATOM      6  C   UNL     1     -11.398  -0.717 -16.569  0.00  0.00    +0.112 A 
ATOM      7  N   UNL     1     -12.366   0.179 -16.854  0.00  0.00    -0.249 NA
ATOM      8  C   UNL     1     -12.177   1.451 -16.437  0.00  0.00    +0.097 A 
ATOM      9  C   UNL     1     -11.044   1.851 -15.738  0.00  0.00    +0.035 A 
ATOM     10  C   UNL     1     -10.066   0.903 -15.449  0.00  0.00    +0.004 A 
ENDBRANCH   4   8
ENDBRANCH   3   4
ENDBRANCH   1   3
BRANCH   2  11
ATOM     11  C   UNL     1     -11.896   6.926 -19.152  0.00  0.00    +0.102 C 
BRANCH  11  12
ATOM     12  S   UNL     1     -12.483   5.882 -20.511  0.00  0.00    -0.102 S 
BRANCH  12  13
ATOM     13  C   UNL     1     -11.523   6.629 -21.808  0.00  0.00    +0.097 A 
ATOM     14  N   UNL     1     -11.275   5.875 -22.903  0.00  0.00    -0.249 NA
ATOM     15  C   UNL     1     -10.546   6.440 -23.888  0.00  0.00    +0.112 A 
ATOM     16  C   UNL     1     -10.063   7.737 -23.842  0.00  0.00    +0.020 A 
ATOM     17  C   UNL     1     -10.334   8.497 -22.711  0.00  0.00    +0.004 A 
ATOM     18  C   UNL     1     -11.069   7.935 -21.671  0.00  0.00    +0.035 A 
ENDBRANCH  12  13
ENDBRANCH  11  12
ENDBRANCH   2  11
TORSDOF 6
ENDMDL
