MODEL 1
REMARK VINA RESULT:     -12.3      0.000      0.000
REMARK  13 active torsions:
REMARK  status: ('A' for Active; 'I' for Inactive)
REMARK    1  A    between atoms: C13_3  and  N_18 
REMARK    2  A    between atoms: C13_3  and  C4_37 
REMARK    3  A    between atoms: C20_9  and  O6_59 
REMARK    4  A    between atoms: C21_25  and  C24_12 
REMARK       I    between atoms: C24_12  and  N2_49 
REMARK    5  A    between atoms: C25_13  and  S_60 
REMARK    6  A    between atoms: C28_15  and  N3_50 
REMARK    7  A    between atoms: C31_17  and  C32_29 
REMARK    8  A    between atoms: C31_17  and  N3_50 
REMARK    9  A    between atoms: C18_23  and  N1_48 
REMARK   10  A    between atoms: C27_26  and  N4_51 
REMARK   11  A    between atoms: C37_34  and  O6_59 
REMARK   12  A    between atoms: C5_43  and  C7_45 
REMARK   13  A    between atoms: N2_49  and  S_60 
ROOT
HETATM    1  C19 LBM A   1     -17.321   3.104 -10.793  1.00  0.00     0.067 A 
HETATM    2  C20 LBM A   1     -17.759   3.312  -9.507  1.00  0.00     0.094 A 
HETATM    3  C22 LBM A   1     -16.990   5.564  -9.584  1.00  0.00     0.022 A 
HETATM    4  C23 LBM A   1     -16.561   5.365 -10.883  1.00  0.00     0.030 A 
HETATM    5  C18 LBM A   1     -16.731   4.124 -11.514  1.00  0.00     0.033 A 
HETATM    6  C21 LBM A   1     -17.618   4.540  -8.861  1.00  0.00     0.067 A 
ENDROOT
BRANCH   6   7
HETATM    7  C24 LBM A   1     -18.072   4.798  -7.455  1.00  0.00     0.268 C 
HETATM    8  O   LBM A   1     -19.231   4.586  -7.080  1.00  0.00    -0.267 OA
HETATM    9  N2  LBM A   1     -17.121   5.262  -6.567  1.00  0.00    -0.246 N 
HETATM   10  HN2 LBM A   1     -16.236   5.597  -6.918  1.00  0.00     0.182 HD
BRANCH   9  11
HETATM   11  S   LBM A   1     -17.398   5.277  -4.985  1.00  0.00     0.265 S 
HETATM   12  O1  LBM A   1     -18.805   5.509  -4.732  1.00  0.00    -0.200 OA
HETATM   13  O2  LBM A   1     -16.445   6.186  -4.429  1.00  0.00    -0.200 OA
BRANCH  11  14
HETATM   14  C25 LBM A   1     -16.996   3.622  -4.449  1.00  0.00     0.082 A 
HETATM   15  C26 LBM A   1     -15.675   3.345  -4.100  1.00  0.00     0.063 A 
HETATM   16  C27 LBM A   1     -15.334   2.059  -3.724  1.00  0.00     0.130 A 
HETATM   17  C28 LBM A   1     -16.276   0.997  -3.665  1.00  0.00     0.061 A 
HETATM   18  C29 LBM A   1     -17.593   1.322  -4.048  1.00  0.00     0.033 A 
HETATM   19  C30 LBM A   1     -17.953   2.624  -4.413  1.00  0.00     0.028 A 
BRANCH  16  20
HETATM   20  N4  LBM A   1     -13.919   1.851  -3.437  1.00  0.00    -0.113 N 
HETATM   21  O4  LBM A   1     -13.529   0.742  -3.125  1.00  0.00    -0.532 OA
HETATM   22  O5  LBM A   1     -13.175   2.826  -3.495  1.00  0.00    -0.532 OA
ENDBRANCH  16  20
BRANCH  17  23
HETATM   23  N3  LBM A   1     -15.911  -0.266  -3.235  1.00  0.00    -0.388 N 
HETATM   24  HN3 LBM A   1     -14.962  -0.396  -2.915  1.00  0.00     0.159 HD
BRANCH  23  25
HETATM   25  C31 LBM A   1     -16.799  -1.421  -3.208  1.00  0.00     0.124 C 
BRANCH  25  26
HETATM   26  C32 LBM A   1     -16.118  -2.586  -2.504  1.00  0.00     0.007 C 
HETATM   27  C33 LBM A   1     -14.754  -2.881  -3.116  1.00  0.00     0.032 C 
HETATM   28  C34 LBM A   1     -14.091  -4.019  -2.370  1.00  0.00     0.168 C 
HETATM   29  O3  LBM A   1     -13.930  -3.706  -0.990  1.00  0.00    -0.391 OA
HETATM   30  C35 LBM A   1     -15.212  -3.512  -0.386  1.00  0.00     0.168 C 
HETATM   31  C36 LBM A   1     -15.936  -2.348  -1.019  1.00  0.00     0.032 C 
ENDBRANCH  25  26
ENDBRANCH  23  25
ENDBRANCH  17  23
ENDBRANCH  11  14
ENDBRANCH   9  11
ENDBRANCH   6   7
BRANCH   2  32
HETATM   32  O6  LBM A   1     -18.321   2.260  -8.807  1.00  0.00    -0.308 OA
BRANCH  32  33
HETATM   33  C37 LBM A   1     -17.529   1.319  -8.182  1.00  0.00     0.094 A 
HETATM   34  C38 LBM A   1     -18.038   0.066  -7.903  1.00  0.00     0.156 A 
HETATM   35  N5  LBM A   1     -17.324  -0.917  -7.338  1.00  0.00    -0.240 NA
HETATM   36  C39 LBM A   1     -16.056  -0.595  -6.971  1.00  0.00     0.137 A 
HETATM   37  C40 LBM A   1     -15.465   0.668  -7.184  1.00  0.00     0.014 A 
HETATM   38  N6  LBM A   1     -15.125  -1.434  -6.432  1.00  0.00    -0.350 N 
HETATM   39  C41 LBM A   1     -16.216   1.643  -7.832  1.00  0.00     0.054 A 
HETATM   40  C42 LBM A   1     -14.088   0.550  -6.715  1.00  0.00     0.032 A 
HETATM   41  C43 LBM A   1     -13.937  -0.731  -6.283  1.00  0.00     0.090 A 
HETATM   42  HN6 LBM A   1     -15.275  -2.401  -6.184  1.00  0.00     0.166 HD
ENDBRANCH  32  33
ENDBRANCH   2  32
BRANCH   5  43
HETATM   43  N1  LBM A   1     -16.278   3.899 -12.802  1.00  0.00    -0.377 N 
HETATM   44  C15 LBM A   1     -15.619   4.942 -13.602  1.00  0.00     0.153 C 
HETATM   45  C14 LBM A   1     -14.798   4.311 -14.733  1.00  0.00     0.292 C 
HETATM   46  N   LBM A   1     -15.627   3.432 -15.590  1.00  0.00     0.095 N 
HETATM   47  C17 LBM A   1     -16.225   2.384 -14.731  1.00  0.00     0.292 C 
HETATM   48  C16 LBM A   1     -17.082   3.013 -13.647  1.00  0.00     0.153 C 
BRANCH  46  49
HETATM   49  C13 LBM A   1     -14.822   2.814 -16.662  1.00  0.00     0.307 C 
BRANCH  49  50
HETATM   50  C4  LBM A   1     -14.043   3.787 -17.506  1.00  0.00    -0.045 C 
HETATM   51  C3  LBM A   1     -14.823   4.858 -18.226  1.00  0.00     0.037 C 
HETATM   52  C2  LBM A   1     -13.996   5.395 -19.385  1.00  0.00     0.013 C 
HETATM   53  C1  LBM A   1     -12.593   5.816 -18.935  1.00  0.00    -0.043 C 
HETATM   54  C   LBM A   1     -11.838   6.449 -20.103  1.00  0.00     0.015 C 
HETATM   55  C44 LBM A   1     -12.687   6.820 -17.791  1.00  0.00     0.015 C 
HETATM   56  C6  LBM A   1     -11.845   4.567 -18.461  1.00  0.00     0.048 C 
HETATM   57  C5  LBM A   1     -12.692   3.608 -17.683  1.00  0.00    -0.043 C 
BRANCH  57  58
HETATM   58  C7  LBM A   1     -11.948   2.441 -17.169  1.00  0.00    -0.029 A 
HETATM   59  C12 LBM A   1     -11.902   1.258 -17.907  1.00  0.00     0.013 A 
HETATM   60  C11 LBM A   1     -11.150   0.194 -17.463  1.00  0.00     0.024 A 
HETATM   61  C10 LBM A   1     -10.471   0.274 -16.256  1.00  0.00     0.034 A 
HETATM   62  C9  LBM A   1     -10.542   1.431 -15.495  1.00  0.00     0.024 A 
HETATM   63 CL   LBM A   1      -9.588  -1.092 -15.670  1.00  0.00    -0.084 Cl
HETATM   64  C8  LBM A   1     -11.271   2.503 -15.953  1.00  0.00     0.013 A 
ENDBRANCH  57  58
ENDBRANCH  49  50
ENDBRANCH  46  49
ENDBRANCH   5  43
TORSDOF 13
ENDMDL
MODEL 2
REMARK VINA RESULT:     -11.9      1.154      1.578
REMARK  13 active torsions:
REMARK  status: ('A' for Active; 'I' for Inactive)
REMARK    1  A    between atoms: C13_3  and  N_18 
REMARK    2  A    between atoms: C13_3  and  C4_37 
REMARK    3  A    between atoms: C20_9  and  O6_59 
REMARK    4  A    between atoms: C21_25  and  C24_12 
REMARK       I    between atoms: C24_12  and  N2_49 
REMARK    5  A    between atoms: C25_13  and  S_60 
REMARK    6  A    between atoms: C28_15  and  N3_50 
REMARK    7  A    between atoms: C31_17  and  C32_29 
REMARK    8  A    between atoms: C31_17  and  N3_50 
REMARK    9  A    between atoms: C18_23  and  N1_48 
REMARK   10  A    between atoms: C27_26  and  N4_51 
REMARK   11  A    between atoms: C37_34  and  O6_59 
REMARK   12  A    between atoms: C5_43  and  C7_45 
REMARK   13  A    between atoms: N2_49  and  S_60 
ROOT
HETATM    1  C19 LBM A   1     -17.240   3.008 -10.717  1.00  0.00     0.067 A 
HETATM    2  C20 LBM A   1     -17.684   3.180  -9.428  1.00  0.00     0.094 A 
HETATM    3  C22 LBM A   1     -16.992   5.458  -9.470  1.00  0.00     0.022 A 
HETATM    4  C23 LBM A   1     -16.559   5.294 -10.772  1.00  0.00     0.030 A 
HETATM    5  C18 LBM A   1     -16.686   4.058 -11.422  1.00  0.00     0.033 A 
HETATM    6  C21 LBM A   1     -17.584   4.401  -8.763  1.00  0.00     0.067 A 
ENDROOT
BRANCH   6   7
HETATM    7  C24 LBM A   1     -18.046   4.621  -7.352  1.00  0.00     0.268 C 
HETATM    8  O   LBM A   1     -19.219   4.450  -7.002  1.00  0.00    -0.267 OA
HETATM    9  N2  LBM A   1     -17.086   4.999  -6.433  1.00  0.00    -0.246 N 
HETATM   10  HN2 LBM A   1     -16.181   5.306  -6.759  1.00  0.00     0.182 HD
BRANCH   9  11
HETATM   11  S   LBM A   1     -17.385   4.961  -4.856  1.00  0.00     0.265 S 
HETATM   12  O1  LBM A   1     -18.805   5.119  -4.618  1.00  0.00    -0.200 OA
HETATM   13  O2  LBM A   1     -16.484   5.899  -4.263  1.00  0.00    -0.200 OA
BRANCH  11  14
HETATM   14  C25 LBM A   1     -16.913   3.312  -4.356  1.00  0.00     0.082 A 
HETATM   15  C26 LBM A   1     -17.899   2.326  -4.323  1.00  0.00     0.063 A 
HETATM   16  C27 LBM A   1     -17.564   1.055  -3.898  1.00  0.00     0.130 A 
HETATM   17  C28 LBM A   1     -16.248   0.697  -3.497  1.00  0.00     0.061 A 
HETATM   18  C29 LBM A   1     -15.294   1.733  -3.526  1.00  0.00     0.033 A 
HETATM   19  C30 LBM A   1     -15.617   3.019  -3.973  1.00  0.00     0.028 A 
BRANCH  16  20
HETATM   20  N4  LBM A   1     -18.672   0.109  -3.838  1.00  0.00    -0.113 N 
HETATM   21  O4  LBM A   1     -18.510  -1.029  -4.235  1.00  0.00    -0.532 OA
HETATM   22  O5  LBM A   1     -19.748   0.517  -3.409  1.00  0.00    -0.532 OA
ENDBRANCH  16  20
BRANCH  17  23
HETATM   23  N3  LBM A   1     -15.938  -0.599  -3.125  1.00  0.00    -0.388 N 
HETATM   24  HN3 LBM A   1     -16.678  -1.285  -3.150  1.00  0.00     0.159 HD
BRANCH  23  25
HETATM   25  C31 LBM A   1     -14.616  -1.044  -2.702  1.00  0.00     0.124 C 
BRANCH  25  26
HETATM   26  C32 LBM A   1     -14.588  -2.562  -2.593  1.00  0.00     0.007 C 
HETATM   27  C33 LBM A   1     -13.638  -3.020  -1.492  1.00  0.00     0.032 C 
HETATM   28  C34 LBM A   1     -13.662  -4.530  -1.387  1.00  0.00     0.168 C 
HETATM   29  O3  LBM A   1     -14.974  -5.006  -1.105  1.00  0.00    -0.391 OA
HETATM   30  C35 LBM A   1     -15.856  -4.656  -2.175  1.00  0.00     0.168 C 
HETATM   31  C36 LBM A   1     -15.955  -3.157  -2.323  1.00  0.00     0.032 C 
ENDBRANCH  25  26
ENDBRANCH  23  25
ENDBRANCH  17  23
ENDBRANCH  11  14
ENDBRANCH   9  11
ENDBRANCH   6   7
BRANCH   2  32
HETATM   32  O6  LBM A   1     -18.209   2.098  -8.745  1.00  0.00    -0.308 OA
BRANCH  32  33
HETATM   33  C37 LBM A   1     -17.385   1.192  -8.108  1.00  0.00     0.094 A 
HETATM   34  C38 LBM A   1     -17.831  -0.092  -7.865  1.00  0.00     0.156 A 
HETATM   35  N5  LBM A   1     -17.082  -1.042  -7.291  1.00  0.00    -0.240 NA
HETATM   36  C39 LBM A   1     -15.846  -0.656  -6.878  1.00  0.00     0.137 A 
HETATM   37  C40 LBM A   1     -15.321   0.641  -7.052  1.00  0.00     0.014 A 
HETATM   38  N6  LBM A   1     -14.887  -1.450  -6.321  1.00  0.00    -0.350 N 
HETATM   39  C41 LBM A   1     -16.104   1.584  -7.710  1.00  0.00     0.054 A 
HETATM   40  C42 LBM A   1     -13.955   0.593  -6.540  1.00  0.00     0.032 A 
HETATM   41  C43 LBM A   1     -13.746  -0.684  -6.122  1.00  0.00     0.090 A 
HETATM   42  HN6 LBM A   1     -14.990  -2.428  -6.093  1.00  0.00     0.166 HD
ENDBRANCH  32  33
ENDBRANCH   2  32
BRANCH   5  43
HETATM   43  N1  LBM A   1     -16.227   3.870 -12.714  1.00  0.00    -0.377 N 
HETATM   44  C15 LBM A   1     -15.424   4.877 -13.423  1.00  0.00     0.153 C 
HETATM   45  C14 LBM A   1     -14.653   4.231 -14.580  1.00  0.00     0.292 C 
HETATM   46  N   LBM A   1     -15.557   3.522 -15.515  1.00  0.00     0.095 N 
HETATM   47  C17 LBM A   1     -16.303   2.498 -14.746  1.00  0.00     0.292 C 
HETATM   48  C16 LBM A   1     -17.107   3.150 -13.637  1.00  0.00     0.153 C 
BRANCH  46  49
HETATM   49  C13 LBM A   1     -14.803   2.887 -16.613  1.00  0.00     0.307 C 
BRANCH  49  50
HETATM   50  C4  LBM A   1     -14.041   3.843 -17.490  1.00  0.00    -0.045 C 
HETATM   51  C3  LBM A   1     -14.831   4.917 -18.194  1.00  0.00     0.037 C 
HETATM   52  C2  LBM A   1     -14.036   5.434 -19.384  1.00  0.00     0.013 C 
HETATM   53  C1  LBM A   1     -12.614   5.842 -18.984  1.00  0.00    -0.043 C 
HETATM   54  C   LBM A   1     -11.891   6.456 -20.181  1.00  0.00     0.015 C 
HETATM   55  C44 LBM A   1     -12.660   6.857 -17.846  1.00  0.00     0.015 C 
HETATM   56  C6  LBM A   1     -11.867   4.588 -18.523  1.00  0.00     0.048 C 
HETATM   57  C5  LBM A   1     -12.699   3.646 -17.710  1.00  0.00    -0.043 C 
BRANCH  57  58
HETATM   58  C7  LBM A   1     -11.952   2.474 -17.210  1.00  0.00    -0.029 A 
HETATM   59  C12 LBM A   1     -11.950   1.283 -17.935  1.00  0.00     0.013 A 
HETATM   60  C11 LBM A   1     -11.196   0.213 -17.507  1.00  0.00     0.024 A 
HETATM   61  C10 LBM A   1     -10.471   0.298 -16.327  1.00  0.00     0.034 A 
HETATM   62  C9  LBM A   1     -10.497   1.465 -15.579  1.00  0.00     0.024 A 
HETATM   63 CL   LBM A   1      -9.585  -1.074 -15.758  1.00  0.00    -0.084 Cl
HETATM   64  C8  LBM A   1     -11.228   2.542 -16.021  1.00  0.00     0.013 A 
ENDBRANCH  57  58
ENDBRANCH  49  50
ENDBRANCH  46  49
ENDBRANCH   5  43
TORSDOF 13
ENDMDL
MODEL 3
REMARK VINA RESULT:     -10.6      1.609      2.188
REMARK  13 active torsions:
REMARK  status: ('A' for Active; 'I' for Inactive)
REMARK    1  A    between atoms: C13_3  and  N_18 
REMARK    2  A    between atoms: C13_3  and  C4_37 
REMARK    3  A    between atoms: C20_9  and  O6_59 
REMARK    4  A    between atoms: C21_25  and  C24_12 
REMARK       I    between atoms: C24_12  and  N2_49 
REMARK    5  A    between atoms: C25_13  and  S_60 
REMARK    6  A    between atoms: C28_15  and  N3_50 
REMARK    7  A    between atoms: C31_17  and  C32_29 
REMARK    8  A    between atoms: C31_17  and  N3_50 
REMARK    9  A    between atoms: C18_23  and  N1_48 
REMARK   10  A    between atoms: C27_26  and  N4_51 
REMARK   11  A    between atoms: C37_34  and  O6_59 
REMARK   12  A    between atoms: C5_43  and  C7_45 
REMARK   13  A    between atoms: N2_49  and  S_60 
ROOT
HETATM    1  C19 LBM A   1     -16.790   3.586 -11.086  1.00  0.00     0.067 A 
HETATM    2  C20 LBM A   1     -17.593   3.512  -9.974  1.00  0.00     0.094 A 
HETATM    3  C22 LBM A   1     -19.532   3.795 -11.327  1.00  0.00     0.022 A 
HETATM    4  C23 LBM A   1     -18.729   3.854 -12.450  1.00  0.00     0.030 A 
HETATM    5  C18 LBM A   1     -17.335   3.740 -12.345  1.00  0.00     0.033 A 
HETATM    6  C21 LBM A   1     -18.983   3.607 -10.050  1.00  0.00     0.067 A 
ENDROOT
BRANCH   6   7
HETATM    7  C24 LBM A   1     -19.889   3.545  -8.856  1.00  0.00     0.268 C 
HETATM    8  O   LBM A   1     -20.806   2.721  -8.760  1.00  0.00    -0.267 OA
HETATM    9  N2  LBM A   1     -19.638   4.439  -7.835  1.00  0.00    -0.246 N 
HETATM   10  HN2 LBM A   1     -19.012   5.214  -7.997  1.00  0.00     0.182 HD
BRANCH   9  11
HETATM   11  S   LBM A   1     -20.325   4.269  -6.393  1.00  0.00     0.265 S 
HETATM   12  O1  LBM A   1     -21.621   3.638  -6.535  1.00  0.00    -0.200 OA
HETATM   13  O2  LBM A   1     -20.255   5.554  -5.771  1.00  0.00    -0.200 OA
BRANCH  11  14
HETATM   14  C25 LBM A   1     -19.246   3.146  -5.518  1.00  0.00     0.082 A 
HETATM   15  C26 LBM A   1     -18.016   3.629  -5.071  1.00  0.00     0.063 A 
HETATM   16  C27 LBM A   1     -17.149   2.765  -4.430  1.00  0.00     0.130 A 
HETATM   17  C28 LBM A   1     -17.455   1.398  -4.193  1.00  0.00     0.061 A 
HETATM   18  C29 LBM A   1     -18.700   0.954  -4.683  1.00  0.00     0.033 A 
HETATM   19  C30 LBM A   1     -19.594   1.823  -5.317  1.00  0.00     0.028 A 
BRANCH  16  20
HETATM   20  N4  LBM A   1     -15.863   3.342  -4.054  1.00  0.00    -0.113 N 
HETATM   21  O4  LBM A   1     -14.879   2.630  -4.005  1.00  0.00    -0.532 OA
HETATM   22  O5  LBM A   1     -15.835   4.537  -3.770  1.00  0.00    -0.532 OA
ENDBRANCH  16  20
BRANCH  17  23
HETATM   23  N3  LBM A   1     -16.584   0.575  -3.502  1.00  0.00    -0.388 N 
HETATM   24  HN3 LBM A   1     -15.752   0.994  -3.113  1.00  0.00     0.159 HD
BRANCH  23  25
HETATM   25  C31 LBM A   1     -16.784  -0.854  -3.295  1.00  0.00     0.124 C 
BRANCH  25  26
HETATM   26  C32 LBM A   1     -15.875  -1.351  -2.180  1.00  0.00     0.007 C 
HETATM   27  C33 LBM A   1     -16.667  -2.095  -1.111  1.00  0.00     0.032 C 
HETATM   28  C34 LBM A   1     -15.728  -2.605  -0.038  1.00  0.00     0.168 C 
HETATM   29  O3  LBM A   1     -14.744  -3.477  -0.586  1.00  0.00    -0.391 OA
HETATM   30  C35 LBM A   1     -13.939  -2.764  -1.529  1.00  0.00     0.168 C 
HETATM   31  C36 LBM A   1     -14.775  -2.264  -2.683  1.00  0.00     0.032 C 
ENDBRANCH  25  26
ENDBRANCH  23  25
ENDBRANCH  17  23
ENDBRANCH  11  14
ENDBRANCH   9  11
ENDBRANCH   6   7
BRANCH   2  32
HETATM   32  O6  LBM A   1     -17.010   3.384  -8.726  1.00  0.00    -0.308 OA
BRANCH  32  33
HETATM   33  C37 LBM A   1     -16.728   2.141  -8.197  1.00  0.00     0.094 A 
HETATM   34  C38 LBM A   1     -17.655   1.122  -8.302  1.00  0.00     0.156 A 
HETATM   35  N5  LBM A   1     -17.443  -0.122  -7.854  1.00  0.00    -0.240 NA
HETATM   36  C39 LBM A   1     -16.267  -0.328  -7.205  1.00  0.00     0.137 A 
HETATM   37  C40 LBM A   1     -15.278   0.660  -7.021  1.00  0.00     0.014 A 
HETATM   38  N6  LBM A   1     -15.805  -1.514  -6.712  1.00  0.00    -0.350 N 
HETATM   39  C41 LBM A   1     -15.506   1.923  -7.557  1.00  0.00     0.054 A 
HETATM   40  C42 LBM A   1     -14.164  -0.006  -6.354  1.00  0.00     0.032 A 
HETATM   41  C43 LBM A   1     -14.530  -1.307  -6.200  1.00  0.00     0.090 A 
HETATM   42  HN6 LBM A   1     -16.304  -2.390  -6.718  1.00  0.00     0.166 HD
ENDBRANCH  32  33
ENDBRANCH   2  32
BRANCH   5  43
HETATM   43  N1  LBM A   1     -16.516   3.830 -13.457  1.00  0.00    -0.377 N 
HETATM   44  C15 LBM A   1     -16.319   5.086 -14.194  1.00  0.00     0.153 C 
HETATM   45  C14 LBM A   1     -15.029   5.025 -15.022  1.00  0.00     0.292 C 
HETATM   46  N   LBM A   1     -15.021   3.865 -15.943  1.00  0.00     0.095 N 
HETATM   47  C17 LBM A   1     -15.182   2.634 -15.133  1.00  0.00     0.292 C 
HETATM   48  C16 LBM A   1     -16.488   2.677 -14.359  1.00  0.00     0.153 C 
BRANCH  46  49
HETATM   49  C13 LBM A   1     -13.767   3.804 -16.718  1.00  0.00     0.307 C 
BRANCH  49  50
HETATM   50  C4  LBM A   1     -13.943   3.479 -18.177  1.00  0.00    -0.045 C 
HETATM   51  C3  LBM A   1     -15.028   4.213 -18.925  1.00  0.00     0.037 C 
HETATM   52  C2  LBM A   1     -15.401   3.430 -20.174  1.00  0.00     0.013 C 
HETATM   53  C1  LBM A   1     -14.169   3.078 -21.014  1.00  0.00    -0.043 C 
HETATM   54  C   LBM A   1     -14.598   2.392 -22.310  1.00  0.00     0.015 C 
HETATM   55  C44 LBM A   1     -13.383   4.343 -21.348  1.00  0.00     0.015 C 
HETATM   56  C6  LBM A   1     -13.288   2.128 -20.200  1.00  0.00     0.048 C 
HETATM   57  C5  LBM A   1     -13.206   2.467 -18.745  1.00  0.00    -0.043 C 
BRANCH  57  58
HETATM   58  C7  LBM A   1     -12.299   1.588 -17.979  1.00  0.00    -0.029 A 
HETATM   59  C12 LBM A   1     -10.922   1.803 -18.012  1.00  0.00     0.013 A 
HETATM   60  C11 LBM A   1     -10.082   1.030 -17.243  1.00  0.00     0.024 A 
HETATM   61  C10 LBM A   1     -10.596   0.002 -16.465  1.00  0.00     0.034 A 
HETATM   62  C9  LBM A   1     -11.960  -0.245 -16.455  1.00  0.00     0.024 A 
HETATM   63 CL   LBM A   1      -9.528  -1.012 -15.558  1.00  0.00    -0.084 Cl
HETATM   64  C8  LBM A   1     -12.801   0.545 -17.203  1.00  0.00     0.013 A 
ENDBRANCH  57  58
ENDBRANCH  49  50
ENDBRANCH  46  49
ENDBRANCH   5  43
TORSDOF 13
ENDMDL
MODEL 4
REMARK VINA RESULT:     -10.5      1.632      2.146
REMARK  13 active torsions:
REMARK  status: ('A' for Active; 'I' for Inactive)
REMARK    1  A    between atoms: C13_3  and  N_18 
REMARK    2  A    between atoms: C13_3  and  C4_37 
REMARK    3  A    between atoms: C20_9  and  O6_59 
REMARK    4  A    between atoms: C21_25  and  C24_12 
REMARK       I    between atoms: C24_12  and  N2_49 
REMARK    5  A    between atoms: C25_13  and  S_60 
REMARK    6  A    between atoms: C28_15  and  N3_50 
REMARK    7  A    between atoms: C31_17  and  C32_29 
REMARK    8  A    between atoms: C31_17  and  N3_50 
REMARK    9  A    between atoms: C18_23  and  N1_48 
REMARK   10  A    between atoms: C27_26  and  N4_51 
REMARK   11  A    between atoms: C37_34  and  O6_59 
REMARK   12  A    between atoms: C5_43  and  C7_45 
REMARK   13  A    between atoms: N2_49  and  S_60 
ROOT
HETATM    1  C19 LBM A   1     -17.120   2.939 -10.679  1.00  0.00     0.067 A 
HETATM    2  C20 LBM A   1     -17.541   3.086  -9.379  1.00  0.00     0.094 A 
HETATM    3  C22 LBM A   1     -16.846   5.364  -9.388  1.00  0.00     0.022 A 
HETATM    4  C23 LBM A   1     -16.435   5.225 -10.700  1.00  0.00     0.030 A 
HETATM    5  C18 LBM A   1     -16.576   4.003 -11.373  1.00  0.00     0.033 A 
HETATM    6  C21 LBM A   1     -17.427   4.295  -8.692  1.00  0.00     0.067 A 
ENDROOT
BRANCH   6   7
HETATM    7  C24 LBM A   1     -17.863   4.488  -7.269  1.00  0.00     0.268 C 
HETATM    8  O   LBM A   1     -17.163   5.069  -6.432  1.00  0.00    -0.267 OA
HETATM    9  N2  LBM A   1     -19.114   4.010  -6.929  1.00  0.00    -0.246 N 
HETATM   10  HN2 LBM A   1     -19.595   3.388  -7.561  1.00  0.00     0.182 HD
BRANCH   9  11
HETATM   11  S   LBM A   1     -19.814   4.425  -5.545  1.00  0.00     0.265 S 
HETATM   12  O1  LBM A   1     -21.255   4.424  -5.701  1.00  0.00    -0.200 OA
HETATM   13  O2  LBM A   1     -19.174   5.633  -5.128  1.00  0.00    -0.200 OA
BRANCH  11  14
HETATM   14  C25 LBM A   1     -19.371   3.117  -4.414  1.00  0.00     0.082 A 
HETATM   15  C26 LBM A   1     -19.742   3.250  -3.076  1.00  0.00     0.063 A 
HETATM   16  C27 LBM A   1     -19.372   2.269  -2.175  1.00  0.00     0.130 A 
HETATM   17  C28 LBM A   1     -18.632   1.116  -2.551  1.00  0.00     0.061 A 
HETATM   18  C29 LBM A   1     -18.263   1.039  -3.908  1.00  0.00     0.033 A 
HETATM   19  C30 LBM A   1     -18.648   2.015  -4.833  1.00  0.00     0.028 A 
BRANCH  16  20
HETATM   20  N4  LBM A   1     -19.749   2.525  -0.789  1.00  0.00    -0.113 N 
HETATM   21  O4  LBM A   1     -19.471   3.594  -0.281  1.00  0.00    -0.532 OA
HETATM   22  O5  LBM A   1     -20.313   1.623  -0.176  1.00  0.00    -0.532 OA
ENDBRANCH  16  20
BRANCH  17  23
HETATM   23  N3  LBM A   1     -18.322   0.129  -1.632  1.00  0.00    -0.388 N 
HETATM   24  HN3 LBM A   1     -18.126   0.415  -0.684  1.00  0.00     0.159 HD
BRANCH  23  25
HETATM   25  C31 LBM A   1     -18.262  -1.295  -1.936  1.00  0.00     0.124 C 
BRANCH  25  26
HETATM   26  C32 LBM A   1     -16.852  -1.819  -1.700  1.00  0.00     0.007 C 
HETATM   27  C33 LBM A   1     -16.745  -3.298  -2.050  1.00  0.00     0.032 C 
HETATM   28  C34 LBM A   1     -15.325  -3.776  -1.838  1.00  0.00     0.168 C 
HETATM   29  O3  LBM A   1     -14.408  -3.036  -2.638  1.00  0.00    -0.391 OA
HETATM   30  C35 LBM A   1     -14.437  -1.658  -2.257  1.00  0.00     0.168 C 
HETATM   31  C36 LBM A   1     -15.805  -1.063  -2.492  1.00  0.00     0.032 C 
ENDBRANCH  25  26
ENDBRANCH  23  25
ENDBRANCH  17  23
ENDBRANCH  11  14
ENDBRANCH   9  11
ENDBRANCH   6   7
BRANCH   2  32
HETATM   32  O6  LBM A   1     -18.055   1.993  -8.708  1.00  0.00    -0.308 OA
BRANCH  32  33
HETATM   33  C37 LBM A   1     -17.226   1.110  -8.046  1.00  0.00     0.094 A 
HETATM   34  C38 LBM A   1     -17.534  -0.236  -8.020  1.00  0.00     0.156 A 
HETATM   35  N5  LBM A   1     -16.762  -1.163  -7.437  1.00  0.00    -0.240 NA
HETATM   36  C39 LBM A   1     -15.662  -0.698  -6.788  1.00  0.00     0.137 A 
HETATM   37  C40 LBM A   1     -15.289   0.661  -6.733  1.00  0.00     0.014 A 
HETATM   38  N6  LBM A   1     -14.702  -1.446  -6.171  1.00  0.00    -0.350 N 
HETATM   39  C41 LBM A   1     -16.080   1.586  -7.405  1.00  0.00     0.054 A 
HETATM   40  C42 LBM A   1     -14.020   0.699  -6.013  1.00  0.00     0.032 A 
HETATM   41  C43 LBM A   1     -13.712  -0.590  -5.707  1.00  0.00     0.090 A 
HETATM   42  HN6 LBM A   1     -14.711  -2.450  -6.070  1.00  0.00     0.166 HD
ENDBRANCH  32  33
ENDBRANCH   2  32
BRANCH   5  43
HETATM   43  N1  LBM A   1     -16.140   3.839 -12.675  1.00  0.00    -0.377 N 
HETATM   44  C15 LBM A   1     -15.377   4.873 -13.390  1.00  0.00     0.153 C 
HETATM   45  C14 LBM A   1     -14.616   4.257 -14.570  1.00  0.00     0.292 C 
HETATM   46  N   LBM A   1     -15.522   3.537 -15.494  1.00  0.00     0.095 N 
HETATM   47  C17 LBM A   1     -16.226   2.487 -14.721  1.00  0.00     0.292 C 
HETATM   48  C16 LBM A   1     -17.023   3.108 -13.588  1.00  0.00     0.153 C 
BRANCH  46  49
HETATM   49  C13 LBM A   1     -14.776   2.931 -16.614  1.00  0.00     0.307 C 
BRANCH  49  50
HETATM   50  C4  LBM A   1     -14.015   3.911 -17.467  1.00  0.00    -0.045 C 
HETATM   51  C3  LBM A   1     -14.808   4.997 -18.149  1.00  0.00     0.037 C 
HETATM   52  C2  LBM A   1     -14.012   5.544 -19.324  1.00  0.00     0.013 C 
HETATM   53  C1  LBM A   1     -12.593   5.948 -18.911  1.00  0.00    -0.043 C 
HETATM   54  C   LBM A   1     -11.869   6.593 -20.092  1.00  0.00     0.015 C 
HETATM   55  C44 LBM A   1     -12.645   6.937 -17.751  1.00  0.00     0.015 C 
HETATM   56  C6  LBM A   1     -11.842   4.687 -18.477  1.00  0.00     0.048 C 
HETATM   57  C5  LBM A   1     -12.672   3.724 -17.688  1.00  0.00    -0.043 C 
BRANCH  57  58
HETATM   58  C7  LBM A   1     -11.922   2.544 -17.213  1.00  0.00    -0.029 A 
HETATM   59  C12 LBM A   1     -11.871   1.386 -17.989  1.00  0.00     0.013 A 
HETATM   60  C11 LBM A   1     -11.113   0.312 -17.582  1.00  0.00     0.024 A 
HETATM   61  C10 LBM A   1     -10.433   0.355 -16.373  1.00  0.00     0.034 A 
HETATM   62  C9  LBM A   1     -10.509   1.486 -15.574  1.00  0.00     0.024 A 
HETATM   63 CL   LBM A   1      -9.543  -1.025 -15.832  1.00  0.00    -0.084 Cl
HETATM   64  C8  LBM A   1     -11.244   2.570 -15.996  1.00  0.00     0.013 A 
ENDBRANCH  57  58
ENDBRANCH  49  50
ENDBRANCH  46  49
ENDBRANCH   5  43
TORSDOF 13
ENDMDL
MODEL 5
REMARK VINA RESULT:     -10.4      2.195      3.462
REMARK  13 active torsions:
REMARK  status: ('A' for Active; 'I' for Inactive)
REMARK    1  A    between atoms: C13_3  and  N_18 
REMARK    2  A    between atoms: C13_3  and  C4_37 
REMARK    3  A    between atoms: C20_9  and  O6_59 
REMARK    4  A    between atoms: C21_25  and  C24_12 
REMARK       I    between atoms: C24_12  and  N2_49 
REMARK    5  A    between atoms: C25_13  and  S_60 
REMARK    6  A    between atoms: C28_15  and  N3_50 
REMARK    7  A    between atoms: C31_17  and  C32_29 
REMARK    8  A    between atoms: C31_17  and  N3_50 
REMARK    9  A    between atoms: C18_23  and  N1_48 
REMARK   10  A    between atoms: C27_26  and  N4_51 
REMARK   11  A    between atoms: C37_34  and  O6_59 
REMARK   12  A    between atoms: C5_43  and  C7_45 
REMARK   13  A    between atoms: N2_49  and  S_60 
ROOT
HETATM    1  C19 LBM A   1     -17.446   3.091 -10.522  1.00  0.00     0.067 A 
HETATM    2  C20 LBM A   1     -17.825   3.219  -9.207  1.00  0.00     0.094 A 
HETATM    3  C22 LBM A   1     -17.096   5.485  -9.194  1.00  0.00     0.022 A 
HETATM    4  C23 LBM A   1     -16.728   5.367 -10.520  1.00  0.00     0.030 A 
HETATM    5  C18 LBM A   1     -16.908   4.160 -11.212  1.00  0.00     0.033 A 
HETATM    6  C21 LBM A   1     -17.672   4.411  -8.501  1.00  0.00     0.067 A 
ENDROOT
BRANCH   6   7
HETATM    7  C24 LBM A   1     -18.062   4.583  -7.062  1.00  0.00     0.268 C 
HETATM    8  O   LBM A   1     -19.206   4.357  -6.651  1.00  0.00    -0.267 OA
HETATM    9  N2  LBM A   1     -17.068   4.980  -6.189  1.00  0.00    -0.246 N 
HETATM   10  HN2 LBM A   1     -16.196   5.329  -6.557  1.00  0.00     0.182 HD
BRANCH   9  11
HETATM   11  S   LBM A   1     -17.276   4.896  -4.599  1.00  0.00     0.265 S 
HETATM   12  O1  LBM A   1     -18.674   5.089  -4.272  1.00  0.00    -0.200 OA
HETATM   13  O2  LBM A   1     -16.312   5.785  -4.029  1.00  0.00    -0.200 OA
BRANCH  11  14
HETATM   14  C25 LBM A   1     -16.830   3.218  -4.182  1.00  0.00     0.082 A 
HETATM   15  C26 LBM A   1     -17.850   2.272  -4.076  1.00  0.00     0.063 A 
HETATM   16  C27 LBM A   1     -17.531   0.977  -3.712  1.00  0.00     0.130 A 
HETATM   17  C28 LBM A   1     -16.200   0.556  -3.446  1.00  0.00     0.061 A 
HETATM   18  C29 LBM A   1     -15.209   1.553  -3.545  1.00  0.00     0.033 A 
HETATM   19  C30 LBM A   1     -15.517   2.862  -3.931  1.00  0.00     0.028 A 
BRANCH  16  20
HETATM   20  N4  LBM A   1     -18.668   0.076  -3.566  1.00  0.00    -0.113 N 
HETATM   21  O4  LBM A   1     -19.620   0.418  -2.891  1.00  0.00    -0.532 OA
HETATM   22  O5  LBM A   1     -18.600  -1.021  -4.115  1.00  0.00    -0.532 OA
ENDBRANCH  16  20
BRANCH  17  23
HETATM   23  N3  LBM A   1     -15.911  -0.760  -3.134  1.00  0.00    -0.388 N 
HETATM   24  HN3 LBM A   1     -16.581  -1.465  -3.407  1.00  0.00     0.159 HD
BRANCH  23  25
HETATM   25  C31 LBM A   1     -14.707  -1.202  -2.441  1.00  0.00     0.124 C 
BRANCH  25  26
HETATM   26  C32 LBM A   1     -14.613  -2.720  -2.477  1.00  0.00     0.007 C 
HETATM   27  C33 LBM A   1     -13.525  -3.229  -1.538  1.00  0.00     0.032 C 
HETATM   28  C34 LBM A   1     -13.483  -4.742  -1.572  1.00  0.00     0.168 C 
HETATM   29  O3  LBM A   1     -14.735  -5.301  -1.188  1.00  0.00    -0.391 OA
HETATM   30  C35 LBM A   1     -15.748  -4.899  -2.114  1.00  0.00     0.168 C 
HETATM   31  C36 LBM A   1     -15.917  -3.399  -2.110  1.00  0.00     0.032 C 
ENDBRANCH  25  26
ENDBRANCH  23  25
ENDBRANCH  17  23
ENDBRANCH  11  14
ENDBRANCH   9  11
ENDBRANCH   6   7
BRANCH   2  32
HETATM   32  O6  LBM A   1     -18.336   2.120  -8.542  1.00  0.00    -0.308 OA
BRANCH  32  33
HETATM   33  C37 LBM A   1     -17.499   1.192  -7.955  1.00  0.00     0.094 A 
HETATM   34  C38 LBM A   1     -17.958  -0.086  -7.700  1.00  0.00     0.156 A 
HETATM   35  N5  LBM A   1     -17.199  -1.056  -7.174  1.00  0.00    -0.240 NA
HETATM   36  C39 LBM A   1     -15.937  -0.698  -6.821  1.00  0.00     0.137 A 
HETATM   37  C40 LBM A   1     -15.395   0.591  -7.011  1.00  0.00     0.014 A 
HETATM   38  N6  LBM A   1     -14.967  -1.516  -6.320  1.00  0.00    -0.350 N 
HETATM   39  C41 LBM A   1     -16.192   1.554  -7.620  1.00  0.00     0.054 A 
HETATM   40  C42 LBM A   1     -14.006   0.511  -6.569  1.00  0.00     0.032 A 
HETATM   41  C43 LBM A   1     -13.802  -0.774  -6.173  1.00  0.00     0.090 A 
HETATM   42  HN6 LBM A   1     -15.077  -2.493  -6.096  1.00  0.00     0.166 HD
ENDBRANCH  32  33
ENDBRANCH   2  32
BRANCH   5  43
HETATM   43  N1  LBM A   1     -16.514   4.015 -12.530  1.00  0.00    -0.377 N 
HETATM   44  C15 LBM A   1     -16.018   5.141 -13.335  1.00  0.00     0.153 C 
HETATM   45  C14 LBM A   1     -15.207   4.628 -14.531  1.00  0.00     0.292 C 
HETATM   46  N   LBM A   1     -15.990   3.687 -15.365  1.00  0.00     0.095 N 
HETATM   47  C17 LBM A   1     -16.423   2.561 -14.504  1.00  0.00     0.292 C 
HETATM   48  C16 LBM A   1     -17.272   3.070 -13.353  1.00  0.00     0.153 C 
BRANCH  46  49
HETATM   49  C13 LBM A   1     -15.193   3.185 -16.500  1.00  0.00     0.307 C 
BRANCH  49  50
HETATM   50  C4  LBM A   1     -13.728   3.521 -16.440  1.00  0.00    -0.045 C 
HETATM   51  C3  LBM A   1     -12.870   2.716 -15.496  1.00  0.00     0.037 C 
HETATM   52  C2  LBM A   1     -11.598   3.488 -15.183  1.00  0.00     0.013 C 
HETATM   53  C1  LBM A   1     -10.886   3.954 -16.458  1.00  0.00    -0.043 C 
HETATM   54  C   LBM A   1      -9.562   4.626 -16.100  1.00  0.00     0.015 C 
HETATM   55  C44 LBM A   1     -10.618   2.763 -17.373  1.00  0.00     0.015 C 
HETATM   56  C6  LBM A   1     -11.792   4.958 -17.174  1.00  0.00     0.048 C 
HETATM   57  C5  LBM A   1     -13.245   4.599 -17.142  1.00  0.00    -0.043 C 
BRANCH  57  58
HETATM   58  C7  LBM A   1     -14.105   5.535 -17.896  1.00  0.00    -0.029 A 
HETATM   59  C12 LBM A   1     -14.435   6.776 -17.352  1.00  0.00     0.013 A 
HETATM   60  C11 LBM A   1     -15.175   7.677 -18.083  1.00  0.00     0.024 A 
HETATM   61  C10 LBM A   1     -15.639   7.338 -19.347  1.00  0.00     0.034 A 
HETATM   62  C9  LBM A   1     -15.350   6.091 -19.880  1.00  0.00     0.024 A 
HETATM   63 CL   LBM A   1     -16.630   8.447 -20.229  1.00  0.00    -0.084 Cl
HETATM   64  C8  LBM A   1     -14.586   5.203 -19.160  1.00  0.00     0.013 A 
ENDBRANCH  57  58
ENDBRANCH  49  50
ENDBRANCH  46  49
ENDBRANCH   5  43
TORSDOF 13
ENDMDL
MODEL 6
REMARK VINA RESULT:     -10.2      2.077      4.106
REMARK  13 active torsions:
REMARK  status: ('A' for Active; 'I' for Inactive)
REMARK    1  A    between atoms: C13_3  and  N_18 
REMARK    2  A    between atoms: C13_3  and  C4_37 
REMARK    3  A    between atoms: C20_9  and  O6_59 
REMARK    4  A    between atoms: C21_25  and  C24_12 
REMARK       I    between atoms: C24_12  and  N2_49 
REMARK    5  A    between atoms: C25_13  and  S_60 
REMARK    6  A    between atoms: C28_15  and  N3_50 
REMARK    7  A    between atoms: C31_17  and  C32_29 
REMARK    8  A    between atoms: C31_17  and  N3_50 
REMARK    9  A    between atoms: C18_23  and  N1_48 
REMARK   10  A    between atoms: C27_26  and  N4_51 
REMARK   11  A    between atoms: C37_34  and  O6_59 
REMARK   12  A    between atoms: C5_43  and  C7_45 
REMARK   13  A    between atoms: N2_49  and  S_60 
ROOT
HETATM    1  C19 LBM A   1     -16.916   5.186 -10.422  1.00  0.00     0.067 A 
HETATM    2  C20 LBM A   1     -17.322   5.347  -9.119  1.00  0.00     0.094 A 
HETATM    3  C22 LBM A   1     -17.246   2.991  -8.781  1.00  0.00     0.022 A 
HETATM    4  C23 LBM A   1     -16.824   2.826 -10.086  1.00  0.00     0.030 A 
HETATM    5  C18 LBM A   1     -16.642   3.931 -10.930  1.00  0.00     0.033 A 
HETATM    6  C21 LBM A   1     -17.495   4.267  -8.254  1.00  0.00     0.067 A 
ENDROOT
BRANCH   6   7
HETATM    7  C24 LBM A   1     -17.949   4.404  -6.831  1.00  0.00     0.268 C 
HETATM    8  O   LBM A   1     -19.021   3.940  -6.427  1.00  0.00    -0.267 OA
HETATM    9  N2  LBM A   1     -17.093   5.054  -5.962  1.00  0.00    -0.246 N 
HETATM   10  HN2 LBM A   1     -16.315   5.578  -6.333  1.00  0.00     0.182 HD
BRANCH   9  11
HETATM   11  S   LBM A   1     -17.316   4.990  -4.374  1.00  0.00     0.265 S 
HETATM   12  O1  LBM A   1     -18.703   5.266  -4.058  1.00  0.00    -0.200 OA
HETATM   13  O2  LBM A   1     -16.307   5.826  -3.802  1.00  0.00    -0.200 OA
BRANCH  11  14
HETATM   14  C25 LBM A   1     -16.969   3.292  -3.945  1.00  0.00     0.082 A 
HETATM   15  C26 LBM A   1     -15.665   2.824  -4.109  1.00  0.00     0.063 A 
HETATM   16  C27 LBM A   1     -15.385   1.502  -3.823  1.00  0.00     0.130 A 
HETATM   17  C28 LBM A   1     -16.368   0.587  -3.358  1.00  0.00     0.061 A 
HETATM   18  C29 LBM A   1     -17.673   1.102  -3.230  1.00  0.00     0.033 A 
HETATM   19  C30 LBM A   1     -17.965   2.443  -3.497  1.00  0.00     0.028 A 
BRANCH  16  20
HETATM   20  N4  LBM A   1     -14.011   1.088  -4.084  1.00  0.00    -0.113 N 
HETATM   21  O4  LBM A   1     -13.249   0.922  -3.151  1.00  0.00    -0.532 OA
HETATM   22  O5  LBM A   1     -13.668   0.953  -5.256  1.00  0.00    -0.532 OA
ENDBRANCH  16  20
BRANCH  17  23
HETATM   23  N3  LBM A   1     -16.041  -0.717  -3.033  1.00  0.00    -0.388 N 
HETATM   24  HN3 LBM A   1     -15.300  -1.159  -3.557  1.00  0.00     0.159 HD
BRANCH  23  25
HETATM   25  C31 LBM A   1     -16.690  -1.497  -1.987  1.00  0.00     0.124 C 
BRANCH  25  26
HETATM   26  C32 LBM A   1     -15.785  -2.642  -1.554  1.00  0.00     0.007 C 
HETATM   27  C33 LBM A   1     -16.179  -3.947  -2.237  1.00  0.00     0.032 C 
HETATM   28  C34 LBM A   1     -15.238  -5.054  -1.812  1.00  0.00     0.168 C 
HETATM   29  O3  LBM A   1     -13.889  -4.739  -2.141  1.00  0.00    -0.391 OA
HETATM   30  C35 LBM A   1     -13.481  -3.563  -1.437  1.00  0.00     0.168 C 
HETATM   31  C36 LBM A   1     -14.322  -2.374  -1.840  1.00  0.00     0.032 C 
ENDBRANCH  25  26
ENDBRANCH  23  25
ENDBRANCH  17  23
ENDBRANCH  11  14
ENDBRANCH   9  11
ENDBRANCH   6   7
BRANCH   2  32
HETATM   32  O6  LBM A   1     -17.612   6.616  -8.654  1.00  0.00    -0.308 OA
BRANCH  32  33
HETATM   33  C37 LBM A   1     -18.831   7.208  -8.917  1.00  0.00     0.094 A 
HETATM   34  C38 LBM A   1     -19.752   7.369  -7.901  1.00  0.00     0.156 A 
HETATM   35  N5  LBM A   1     -20.938   7.971  -8.063  1.00  0.00    -0.240 NA
HETATM   36  C39 LBM A   1     -21.238   8.363  -9.329  1.00  0.00     0.137 A 
HETATM   37  C40 LBM A   1     -20.374   8.208 -10.433  1.00  0.00     0.014 A 
HETATM   38  N6  LBM A   1     -22.352   9.040  -9.731  1.00  0.00    -0.350 N 
HETATM   39  C41 LBM A   1     -19.125   7.638 -10.214  1.00  0.00     0.054 A 
HETATM   40  C42 LBM A   1     -21.054   8.831 -11.565  1.00  0.00     0.032 A 
HETATM   41  C43 LBM A   1     -22.229   9.319 -11.086  1.00  0.00     0.090 A 
HETATM   42  HN6 LBM A   1     -23.132   9.294  -9.143  1.00  0.00     0.166 HD
ENDBRANCH  32  33
ENDBRANCH   2  32
BRANCH   5  43
HETATM   43  N1  LBM A   1     -16.251   3.779 -12.248  1.00  0.00    -0.377 N 
HETATM   44  C15 LBM A   1     -15.480   4.804 -12.967  1.00  0.00     0.153 C 
HETATM   45  C14 LBM A   1     -14.773   4.188 -14.181  1.00  0.00     0.292 C 
HETATM   46  N   LBM A   1     -15.728   3.512 -15.089  1.00  0.00     0.095 N 
HETATM   47  C17 LBM A   1     -16.440   2.469 -14.314  1.00  0.00     0.292 C 
HETATM   48  C16 LBM A   1     -17.183   3.092 -13.146  1.00  0.00     0.153 C 
BRANCH  46  49
HETATM   49  C13 LBM A   1     -15.035   2.907 -16.243  1.00  0.00     0.307 C 
BRANCH  49  50
HETATM   50  C4  LBM A   1     -14.347   3.889 -17.152  1.00  0.00    -0.045 C 
HETATM   51  C3  LBM A   1     -15.202   4.949 -17.800  1.00  0.00     0.037 C 
HETATM   52  C2  LBM A   1     -14.488   5.495 -19.027  1.00  0.00     0.013 C 
HETATM   53  C1  LBM A   1     -13.056   5.935 -18.703  1.00  0.00    -0.043 C 
HETATM   54  C   LBM A   1     -12.416   6.577 -19.933  1.00  0.00     0.015 C 
HETATM   55  C44 LBM A   1     -13.062   6.939 -17.555  1.00  0.00     0.015 C 
HETATM   56  C6  LBM A   1     -12.253   4.697 -18.297  1.00  0.00     0.048 C 
HETATM   57  C5  LBM A   1     -13.015   3.728 -17.448  1.00  0.00    -0.043 C 
BRANCH  57  58
HETATM   58  C7  LBM A   1     -12.213   2.570 -17.002  1.00  0.00    -0.029 A 
HETATM   59  C12 LBM A   1     -12.229   1.383 -17.733  1.00  0.00     0.013 A 
HETATM   60  C11 LBM A   1     -11.427   0.328 -17.359  1.00  0.00     0.024 A 
HETATM   61  C10 LBM A   1     -10.632   0.423 -16.226  1.00  0.00     0.034 A 
HETATM   62  C9  LBM A   1     -10.638   1.586 -15.469  1.00  0.00     0.024 A 
HETATM   63 CL   LBM A   1      -9.683  -0.931 -15.721  1.00  0.00    -0.084 Cl
HETATM   64  C8  LBM A   1     -11.419   2.648 -15.860  1.00  0.00     0.013 A 
ENDBRANCH  57  58
ENDBRANCH  49  50
ENDBRANCH  46  49
ENDBRANCH   5  43
TORSDOF 13
ENDMDL
MODEL 7
REMARK VINA RESULT:      -9.7      2.171      2.802
REMARK  13 active torsions:
REMARK  status: ('A' for Active; 'I' for Inactive)
REMARK    1  A    between atoms: C13_3  and  N_18 
REMARK    2  A    between atoms: C13_3  and  C4_37 
REMARK    3  A    between atoms: C20_9  and  O6_59 
REMARK    4  A    between atoms: C21_25  and  C24_12 
REMARK       I    between atoms: C24_12  and  N2_49 
REMARK    5  A    between atoms: C25_13  and  S_60 
REMARK    6  A    between atoms: C28_15  and  N3_50 
REMARK    7  A    between atoms: C31_17  and  C32_29 
REMARK    8  A    between atoms: C31_17  and  N3_50 
REMARK    9  A    between atoms: C18_23  and  N1_48 
REMARK   10  A    between atoms: C27_26  and  N4_51 
REMARK   11  A    between atoms: C37_34  and  O6_59 
REMARK   12  A    between atoms: C5_43  and  C7_45 
REMARK   13  A    between atoms: N2_49  and  S_60 
ROOT
HETATM    1  C19 LBM A   1     -16.958   3.258  -9.738  1.00  0.00     0.067 A 
HETATM    2  C20 LBM A   1     -17.720   3.173  -8.598  1.00  0.00     0.094 A 
HETATM    3  C22 LBM A   1     -19.702   3.530  -9.869  1.00  0.00     0.022 A 
HETATM    4  C23 LBM A   1     -18.941   3.601 -11.021  1.00  0.00     0.030 A 
HETATM    5  C18 LBM A   1     -17.547   3.456 -10.972  1.00  0.00     0.033 A 
HETATM    6  C21 LBM A   1     -19.109   3.297  -8.620  1.00  0.00     0.067 A 
ENDROOT
BRANCH   6   7
HETATM    7  C24 LBM A   1     -19.971   3.223  -7.394  1.00  0.00     0.268 C 
HETATM    8  O   LBM A   1     -20.943   3.967  -7.218  1.00  0.00    -0.267 OA
HETATM    9  N2  LBM A   1     -19.651   2.253  -6.464  1.00  0.00    -0.246 N 
HETATM   10  HN2 LBM A   1     -18.764   1.777  -6.529  1.00  0.00     0.182 HD
BRANCH   9  11
HETATM   11  S   LBM A   1     -20.667   1.869  -5.281  1.00  0.00     0.265 S 
HETATM   12  O1  LBM A   1     -21.835   1.210  -5.827  1.00  0.00    -0.200 OA
HETATM   13  O2  LBM A   1     -20.851   3.064  -4.518  1.00  0.00    -0.200 OA
BRANCH  11  14
HETATM   14  C25 LBM A   1     -19.767   0.686  -4.291  1.00  0.00     0.082 A 
HETATM   15  C26 LBM A   1     -19.875   0.772  -2.903  1.00  0.00     0.063 A 
HETATM   16  C27 LBM A   1     -19.153  -0.106  -2.117  1.00  0.00     0.130 A 
HETATM   17  C28 LBM A   1     -18.304  -1.109  -2.660  1.00  0.00     0.061 A 
HETATM   18  C29 LBM A   1     -18.213  -1.140  -4.066  1.00  0.00     0.033 A 
HETATM   19  C30 LBM A   1     -18.952  -0.269  -4.872  1.00  0.00     0.028 A 
BRANCH  16  20
HETATM   20  N4  LBM A   1     -19.280   0.099  -0.679  1.00  0.00    -0.113 N 
HETATM   21  O4  LBM A   1     -19.460  -0.859   0.049  1.00  0.00    -0.532 OA
HETATM   22  O5  LBM A   1     -19.229   1.253  -0.260  1.00  0.00    -0.532 OA
ENDBRANCH  16  20
BRANCH  17  23
HETATM   23  N3  LBM A   1     -17.636  -2.005  -1.845  1.00  0.00    -0.388 N 
HETATM   24  HN3 LBM A   1     -18.084  -2.889  -1.653  1.00  0.00     0.159 HD
BRANCH  23  25
HETATM   25  C31 LBM A   1     -16.331  -1.762  -1.243  1.00  0.00     0.124 C 
BRANCH  25  26
HETATM   26  C32 LBM A   1     -15.539  -3.060  -1.176  1.00  0.00     0.007 C 
HETATM   27  C33 LBM A   1     -16.023  -4.058  -2.222  1.00  0.00     0.032 C 
HETATM   28  C34 LBM A   1     -15.191  -5.321  -2.151  1.00  0.00     0.168 C 
HETATM   29  O3  LBM A   1     -13.812  -5.042  -2.369  1.00  0.00    -0.391 OA
HETATM   30  C35 LBM A   1     -13.326  -4.175  -1.342  1.00  0.00     0.168 C 
HETATM   31  C36 LBM A   1     -14.051  -2.850  -1.367  1.00  0.00     0.032 C 
ENDBRANCH  25  26
ENDBRANCH  23  25
ENDBRANCH  17  23
ENDBRANCH  11  14
ENDBRANCH   9  11
ENDBRANCH   6   7
BRANCH   2  32
HETATM   32  O6  LBM A   1     -17.093   3.001  -7.378  1.00  0.00    -0.308 OA
BRANCH  32  33
HETATM   33  C37 LBM A   1     -16.541   1.785  -7.027  1.00  0.00     0.094 A 
HETATM   34  C38 LBM A   1     -16.606   0.721  -7.904  1.00  0.00     0.156 A 
HETATM   35  N5  LBM A   1     -16.060  -0.477  -7.658  1.00  0.00    -0.240 NA
HETATM   36  C39 LBM A   1     -15.484  -0.629  -6.438  1.00  0.00     0.137 A 
HETATM   37  C40 LBM A   1     -15.402   0.391  -5.466  1.00  0.00     0.014 A 
HETATM   38  N6  LBM A   1     -14.819  -1.730  -5.980  1.00  0.00    -0.350 N 
HETATM   39  C41 LBM A   1     -15.923   1.641  -5.783  1.00  0.00     0.054 A 
HETATM   40  C42 LBM A   1     -14.643  -0.174  -4.354  1.00  0.00     0.032 A 
HETATM   41  C43 LBM A   1     -14.313  -1.442  -4.719  1.00  0.00     0.090 A 
HETATM   42  HN6 LBM A   1     -14.713  -2.603  -6.474  1.00  0.00     0.166 HD
ENDBRANCH  32  33
ENDBRANCH   2  32
BRANCH   5  43
HETATM   43  N1  LBM A   1     -16.769   3.557 -12.111  1.00  0.00    -0.377 N 
HETATM   44  C15 LBM A   1     -15.854   4.684 -12.346  1.00  0.00     0.153 C 
HETATM   45  C14 LBM A   1     -14.790   4.302 -13.383  1.00  0.00     0.292 C 
HETATM   46  N   LBM A   1     -15.399   3.843 -14.653  1.00  0.00     0.095 N 
HETATM   47  C17 LBM A   1     -16.273   2.686 -14.351  1.00  0.00     0.292 C 
HETATM   48  C16 LBM A   1     -17.358   3.084 -13.366  1.00  0.00     0.153 C 
BRANCH  46  49
HETATM   49  C13 LBM A   1     -14.366   3.460 -15.635  1.00  0.00     0.307 C 
BRANCH  49  50
HETATM   50  C4  LBM A   1     -14.263   4.370 -16.829  1.00  0.00    -0.045 C 
HETATM   51  C3  LBM A   1     -15.389   5.348 -17.054  1.00  0.00     0.037 C 
HETATM   52  C2  LBM A   1     -15.387   5.796 -18.508  1.00  0.00     0.013 C 
HETATM   53  C1  LBM A   1     -14.007   6.295 -18.948  1.00  0.00    -0.043 C 
HETATM   54  C   LBM A   1     -14.077   6.837 -20.375  1.00  0.00     0.015 C 
HETATM   55  C44 LBM A   1     -13.525   7.399 -18.012  1.00  0.00     0.015 C 
HETATM   56  C6  LBM A   1     -13.031   5.117 -18.896  1.00  0.00     0.048 C 
HETATM   57  C5  LBM A   1     -13.229   4.212 -17.720  1.00  0.00    -0.043 C 
BRANCH  57  58
HETATM   58  C7  LBM A   1     -12.240   3.118 -17.639  1.00  0.00    -0.029 A 
HETATM   59  C12 LBM A   1     -11.012   3.329 -17.013  1.00  0.00     0.013 A 
HETATM   60  C11 LBM A   1     -10.119   2.291 -16.873  1.00  0.00     0.024 A 
HETATM   61  C10 LBM A   1     -10.415   1.039 -17.395  1.00  0.00     0.034 A 
HETATM   62  C9  LBM A   1     -11.617   0.829 -18.054  1.00  0.00     0.024 A 
HETATM   63 CL   LBM A   1      -9.258  -0.241 -17.280  1.00  0.00    -0.084 Cl
HETATM   64  C8  LBM A   1     -12.520   1.860 -18.169  1.00  0.00     0.013 A 
ENDBRANCH  57  58
ENDBRANCH  49  50
ENDBRANCH  46  49
ENDBRANCH   5  43
TORSDOF 13
ENDMDL
MODEL 8
REMARK VINA RESULT:      -9.6      3.470      5.825
REMARK  13 active torsions:
REMARK  status: ('A' for Active; 'I' for Inactive)
REMARK    1  A    between atoms: C13_3  and  N_18 
REMARK    2  A    between atoms: C13_3  and  C4_37 
REMARK    3  A    between atoms: C20_9  and  O6_59 
REMARK    4  A    between atoms: C21_25  and  C24_12 
REMARK       I    between atoms: C24_12  and  N2_49 
REMARK    5  A    between atoms: C25_13  and  S_60 
REMARK    6  A    between atoms: C28_15  and  N3_50 
REMARK    7  A    between atoms: C31_17  and  C32_29 
REMARK    8  A    between atoms: C31_17  and  N3_50 
REMARK    9  A    between atoms: C18_23  and  N1_48 
REMARK   10  A    between atoms: C27_26  and  N4_51 
REMARK   11  A    between atoms: C37_34  and  O6_59 
REMARK   12  A    between atoms: C5_43  and  C7_45 
REMARK   13  A    between atoms: N2_49  and  S_60 
ROOT
HETATM    1  C19 LBM A   1     -17.018   4.513 -11.019  1.00  0.00     0.067 A 
HETATM    2  C20 LBM A   1     -17.602   5.146  -9.949  1.00  0.00     0.094 A 
HETATM    3  C22 LBM A   1     -18.545   6.781 -11.400  1.00  0.00     0.022 A 
HETATM    4  C23 LBM A   1     -17.973   6.139 -12.482  1.00  0.00     0.030 A 
HETATM    5  C18 LBM A   1     -17.202   4.981 -12.306  1.00  0.00     0.033 A 
HETATM    6  C21 LBM A   1     -18.386   6.290 -10.096  1.00  0.00     0.067 A 
ENDROOT
BRANCH   6   7
HETATM    7  C24 LBM A   1     -19.027   7.014  -8.949  1.00  0.00     0.268 C 
HETATM    8  O   LBM A   1     -18.923   8.236  -8.792  1.00  0.00    -0.267 OA
HETATM    9  N2  LBM A   1     -19.779   6.255  -8.074  1.00  0.00    -0.246 N 
HETATM   10  HN2 LBM A   1     -19.712   5.248  -8.106  1.00  0.00     0.182 HD
BRANCH   9  11
HETATM   11  S   LBM A   1     -20.758   6.945  -7.005  1.00  0.00     0.265 S 
HETATM   12  O1  LBM A   1     -21.625   5.947  -6.412  1.00  0.00    -0.200 OA
HETATM   13  O2  LBM A   1     -21.355   8.056  -7.678  1.00  0.00    -0.200 OA
BRANCH  11  14
HETATM   14  C25 LBM A   1     -19.664   7.562  -5.735  1.00  0.00     0.082 A 
HETATM   15  C26 LBM A   1     -18.651   6.721  -5.273  1.00  0.00     0.063 A 
HETATM   16  C27 LBM A   1     -17.820   7.163  -4.261  1.00  0.00     0.130 A 
HETATM   17  C28 LBM A   1     -17.943   8.448  -3.668  1.00  0.00     0.061 A 
HETATM   18  C29 LBM A   1     -18.994   9.251  -4.154  1.00  0.00     0.033 A 
HETATM   19  C30 LBM A   1     -19.829   8.822  -5.190  1.00  0.00     0.028 A 
BRANCH  16  20
HETATM   20  N4  LBM A   1     -16.833   6.193  -3.801  1.00  0.00    -0.113 N 
HETATM   21  O4  LBM A   1     -15.691   6.555  -3.592  1.00  0.00    -0.532 OA
HETATM   22  O5  LBM A   1     -17.196   5.027  -3.671  1.00  0.00    -0.532 OA
ENDBRANCH  16  20
BRANCH  17  23
HETATM   23  N3  LBM A   1     -17.061   8.877  -2.692  1.00  0.00    -0.388 N 
HETATM   24  HN3 LBM A   1     -16.160   9.222  -2.992  1.00  0.00     0.159 HD
BRANCH  23  25
HETATM   25  C31 LBM A   1     -17.340   8.867  -1.262  1.00  0.00     0.124 C 
BRANCH  25  26
HETATM   26  C32 LBM A   1     -16.758  10.112  -0.609  1.00  0.00     0.007 C 
HETATM   27  C33 LBM A   1     -15.277  10.266  -0.932  1.00  0.00     0.032 C 
HETATM   28  C34 LBM A   1     -14.740  11.531  -0.298  1.00  0.00     0.168 C 
HETATM   29  O3  LBM A   1     -15.444  12.679  -0.761  1.00  0.00    -0.391 OA
HETATM   30  C35 LBM A   1     -16.821  12.586  -0.386  1.00  0.00     0.168 C 
HETATM   31  C36 LBM A   1     -17.473  11.382  -1.024  1.00  0.00     0.032 C 
ENDBRANCH  25  26
ENDBRANCH  23  25
ENDBRANCH  17  23
ENDBRANCH  11  14
ENDBRANCH   9  11
ENDBRANCH   6   7
BRANCH   2  32
HETATM   32  O6  LBM A   1     -17.373   4.664  -8.673  1.00  0.00    -0.308 OA
BRANCH  32  33
HETATM   33  C37 LBM A   1     -17.486   3.318  -8.390  1.00  0.00     0.094 A 
HETATM   34  C38 LBM A   1     -18.722   2.704  -8.443  1.00  0.00     0.156 A 
HETATM   35  N5  LBM A   1     -18.911   1.396  -8.225  1.00  0.00    -0.240 NA
HETATM   36  C39 LBM A   1     -17.809   0.688  -7.865  1.00  0.00     0.137 A 
HETATM   37  C40 LBM A   1     -16.515   1.238  -7.752  1.00  0.00     0.014 A 
HETATM   38  N6  LBM A   1     -17.739  -0.657  -7.646  1.00  0.00    -0.350 N 
HETATM   39  C41 LBM A   1     -16.346   2.586  -8.049  1.00  0.00     0.054 A 
HETATM   40  C42 LBM A   1     -15.632   0.122  -7.425  1.00  0.00     0.032 A 
HETATM   41  C43 LBM A   1     -16.417  -0.989  -7.382  1.00  0.00     0.090 A 
HETATM   42  HN6 LBM A   1     -18.516  -1.300  -7.672  1.00  0.00     0.166 HD
ENDBRANCH  32  33
ENDBRANCH   2  32
BRANCH   5  43
HETATM   43  N1  LBM A   1     -16.595   4.346 -13.375  1.00  0.00    -0.377 N 
HETATM   44  C15 LBM A   1     -16.706   2.897 -13.601  1.00  0.00     0.153 C 
HETATM   45  C14 LBM A   1     -16.389   2.558 -15.062  1.00  0.00     0.292 C 
HETATM   46  N   LBM A   1     -15.054   3.054 -15.466  1.00  0.00     0.095 N 
HETATM   47  C17 LBM A   1     -15.025   4.520 -15.252  1.00  0.00     0.292 C 
HETATM   48  C16 LBM A   1     -15.284   4.847 -13.792  1.00  0.00     0.153 C 
BRANCH  46  49
HETATM   49  C13 LBM A   1     -14.769   2.740 -16.879  1.00  0.00     0.307 C 
BRANCH  49  50
HETATM   50  C4  LBM A   1     -14.010   3.807 -17.622  1.00  0.00    -0.045 C 
HETATM   51  C3  LBM A   1     -14.816   4.883 -18.305  1.00  0.00     0.037 C 
HETATM   52  C2  LBM A   1     -13.973   5.538 -19.387  1.00  0.00     0.013 C 
HETATM   53  C1  LBM A   1     -12.614   5.999 -18.849  1.00  0.00    -0.043 C 
HETATM   54  C   LBM A   1     -11.848   6.748 -19.938  1.00  0.00     0.015 C 
HETATM   55  C44 LBM A   1     -12.810   6.917 -17.647  1.00  0.00     0.015 C 
HETATM   56  C6  LBM A   1     -11.820   4.761 -18.425  1.00  0.00     0.048 C 
HETATM   57  C5  LBM A   1     -12.645   3.710 -17.750  1.00  0.00    -0.043 C 
BRANCH  57  58
HETATM   58  C7  LBM A   1     -11.860   2.549 -17.281  1.00  0.00    -0.029 A 
HETATM   59  C12 LBM A   1     -11.212   2.594 -16.047  1.00  0.00     0.013 A 
HETATM   60  C11 LBM A   1     -10.541   1.488 -15.577  1.00  0.00     0.024 A 
HETATM   61  C10 LBM A   1     -10.466   0.337 -16.348  1.00  0.00     0.034 A 
HETATM   62  C9  LBM A   1     -11.074   0.295 -17.594  1.00  0.00     0.024 A 
HETATM   63 CL   LBM A   1      -9.559  -1.023 -15.783  1.00  0.00    -0.084 Cl
HETATM   64  C8  LBM A   1     -11.767   1.391 -18.051  1.00  0.00     0.013 A 
ENDBRANCH  57  58
ENDBRANCH  49  50
ENDBRANCH  46  49
ENDBRANCH   5  43
TORSDOF 13
ENDMDL
MODEL 9
REMARK VINA RESULT:      -9.6      2.297      3.613
REMARK  13 active torsions:
REMARK  status: ('A' for Active; 'I' for Inactive)
REMARK    1  A    between atoms: C13_3  and  N_18 
REMARK    2  A    between atoms: C13_3  and  C4_37 
REMARK    3  A    between atoms: C20_9  and  O6_59 
REMARK    4  A    between atoms: C21_25  and  C24_12 
REMARK       I    between atoms: C24_12  and  N2_49 
REMARK    5  A    between atoms: C25_13  and  S_60 
REMARK    6  A    between atoms: C28_15  and  N3_50 
REMARK    7  A    between atoms: C31_17  and  C32_29 
REMARK    8  A    between atoms: C31_17  and  N3_50 
REMARK    9  A    between atoms: C18_23  and  N1_48 
REMARK   10  A    between atoms: C27_26  and  N4_51 
REMARK   11  A    between atoms: C37_34  and  O6_59 
REMARK   12  A    between atoms: C5_43  and  C7_45 
REMARK   13  A    between atoms: N2_49  and  S_60 
ROOT
HETATM    1  C19 LBM A   1     -17.728   3.280 -11.252  1.00  0.00     0.067 A 
HETATM    2  C20 LBM A   1     -18.133   3.419  -9.946  1.00  0.00     0.094 A 
HETATM    3  C22 LBM A   1     -16.307   4.883  -9.511  1.00  0.00     0.022 A 
HETATM    4  C23 LBM A   1     -15.904   4.759 -10.827  1.00  0.00     0.030 A 
HETATM    5  C18 LBM A   1     -16.621   3.956 -11.726  1.00  0.00     0.033 A 
HETATM    6  C21 LBM A   1     -17.449   4.224  -9.035  1.00  0.00     0.067 A 
ENDROOT
BRANCH   6   7
HETATM    7  C24 LBM A   1     -17.855   4.388  -7.600  1.00  0.00     0.268 C 
HETATM    8  O   LBM A   1     -18.528   5.346  -7.204  1.00  0.00    -0.267 OA
HETATM    9  N2  LBM A   1     -17.468   3.392  -6.724  1.00  0.00    -0.246 N 
HETATM   10  HN2 LBM A   1     -16.777   2.716  -7.016  1.00  0.00     0.182 HD
BRANCH   9  11
HETATM   11  S   LBM A   1     -18.096   3.292  -5.250  1.00  0.00     0.265 S 
HETATM   12  O1  LBM A   1     -19.518   3.029  -5.336  1.00  0.00    -0.200 OA
HETATM   13  O2  LBM A   1     -17.659   4.462  -4.556  1.00  0.00    -0.200 OA
BRANCH  11  14
HETATM   14  C25 LBM A   1     -17.305   1.863  -4.527  1.00  0.00     0.082 A 
HETATM   15  C26 LBM A   1     -16.227   1.294  -5.206  1.00  0.00     0.063 A 
HETATM   16  C27 LBM A   1     -15.628   0.162  -4.686  1.00  0.00     0.130 A 
HETATM   17  C28 LBM A   1     -16.054  -0.451  -3.477  1.00  0.00     0.061 A 
HETATM   18  C29 LBM A   1     -17.159   0.149  -2.841  1.00  0.00     0.033 A 
HETATM   19  C30 LBM A   1     -17.762   1.305  -3.348  1.00  0.00     0.028 A 
BRANCH  16  20
HETATM   20  N4  LBM A   1     -14.552  -0.398  -5.496  1.00  0.00    -0.113 N 
HETATM   21  O4  LBM A   1     -14.749  -1.416  -6.131  1.00  0.00    -0.532 OA
HETATM   22  O5  LBM A   1     -13.466   0.175  -5.477  1.00  0.00    -0.532 OA
ENDBRANCH  16  20
BRANCH  17  23
HETATM   23  N3  LBM A   1     -15.398  -1.553  -2.959  1.00  0.00    -0.388 N 
HETATM   24  HN3 LBM A   1     -14.398  -1.488  -2.834  1.00  0.00     0.159 HD
BRANCH  23  25
HETATM   25  C31 LBM A   1     -16.048  -2.801  -2.580  1.00  0.00     0.124 C 
BRANCH  25  26
HETATM   26  C32 LBM A   1     -15.012  -3.906  -2.436  1.00  0.00     0.007 C 
HETATM   27  C33 LBM A   1     -13.959  -3.545  -1.395  1.00  0.00     0.032 C 
HETATM   28  C34 LBM A   1     -12.966  -4.679  -1.253  1.00  0.00     0.168 C 
HETATM   29  O3  LBM A   1     -13.615  -5.886  -0.867  1.00  0.00    -0.391 OA
HETATM   30  C35 LBM A   1     -14.544  -6.281  -1.879  1.00  0.00     0.168 C 
HETATM   31  C36 LBM A   1     -15.623  -5.239  -2.057  1.00  0.00     0.032 C 
ENDBRANCH  25  26
ENDBRANCH  23  25
ENDBRANCH  17  23
ENDBRANCH  11  14
ENDBRANCH   9  11
ENDBRANCH   6   7
BRANCH   2  32
HETATM   32  O6  LBM A   1     -19.231   2.707  -9.501  1.00  0.00    -0.308 OA
BRANCH  32  33
HETATM   33  C37 LBM A   1     -20.468   3.308  -9.378  1.00  0.00     0.094 A 
HETATM   34  C38 LBM A   1     -21.389   2.812  -8.477  1.00  0.00     0.156 A 
HETATM   35  N5  LBM A   1     -22.592   3.362  -8.267  1.00  0.00    -0.240 NA
HETATM   36  C39 LBM A   1     -22.908   4.420  -9.058  1.00  0.00     0.137 A 
HETATM   37  C40 LBM A   1     -22.045   4.972 -10.028  1.00  0.00     0.014 A 
HETATM   38  N6  LBM A   1     -24.043   5.175  -8.996  1.00  0.00    -0.350 N 
HETATM   39  C41 LBM A   1     -20.779   4.415 -10.172  1.00  0.00     0.054 A 
HETATM   40  C42 LBM A   1     -22.747   6.127 -10.579  1.00  0.00     0.032 A 
HETATM   41  C43 LBM A   1     -23.934   6.206  -9.920  1.00  0.00     0.090 A 
HETATM   42  HN6 LBM A   1     -24.828   5.012  -8.383  1.00  0.00     0.166 HD
ENDBRANCH  32  33
ENDBRANCH   2  32
BRANCH   5  43
HETATM   43  N1  LBM A   1     -16.211   3.796 -13.038  1.00  0.00    -0.377 N 
HETATM   44  C15 LBM A   1     -15.658   4.901 -13.834  1.00  0.00     0.153 C 
HETATM   45  C14 LBM A   1     -14.848   4.356 -15.017  1.00  0.00     0.292 C 
HETATM   46  N   LBM A   1     -15.655   3.447 -15.864  1.00  0.00     0.095 N 
HETATM   47  C17 LBM A   1     -16.146   2.339 -15.011  1.00  0.00     0.292 C 
HETATM   48  C16 LBM A   1     -16.993   2.882 -13.874  1.00  0.00     0.153 C 
BRANCH  46  49
HETATM   49  C13 LBM A   1     -14.861   2.913 -16.987  1.00  0.00     0.307 C 
BRANCH  49  50
HETATM   50  C4  LBM A   1     -14.049   3.940 -17.730  1.00  0.00    -0.045 C 
HETATM   51  C3  LBM A   1     -14.803   5.024 -18.459  1.00  0.00     0.037 C 
HETATM   52  C2  LBM A   1     -13.909   5.629 -19.530  1.00  0.00     0.013 C 
HETATM   53  C1  LBM A   1     -12.553   6.062 -18.962  1.00  0.00    -0.043 C 
HETATM   54  C   LBM A   1     -11.733   6.764 -20.044  1.00  0.00     0.015 C 
HETATM   55  C44 LBM A   1     -12.756   7.012 -17.786  1.00  0.00     0.015 C 
HETATM   56  C6  LBM A   1     -11.810   4.811 -18.488  1.00  0.00     0.048 C 
HETATM   57  C5  LBM A   1     -12.685   3.800 -17.816  1.00  0.00    -0.043 C 
BRANCH  57  58
HETATM   58  C7  LBM A   1     -11.949   2.628 -17.299  1.00  0.00    -0.029 A 
HETATM   59  C12 LBM A   1     -11.890   1.452 -18.046  1.00  0.00     0.013 A 
HETATM   60  C11 LBM A   1     -11.145   0.384 -17.599  1.00  0.00     0.024 A 
HETATM   61  C10 LBM A   1     -10.487   0.453 -16.379  1.00  0.00     0.034 A 
HETATM   62  C9  LBM A   1     -10.571   1.604 -15.610  1.00  0.00     0.024 A 
HETATM   63 CL   LBM A   1      -9.614  -0.918 -15.790  1.00  0.00    -0.084 Cl
HETATM   64  C8  LBM A   1     -11.293   2.680 -16.071  1.00  0.00     0.013 A 
ENDBRANCH  57  58
ENDBRANCH  49  50
ENDBRANCH  46  49
ENDBRANCH   5  43
TORSDOF 13
ENDMDL
