MODEL 1
REMARK VINA RESULT:     -12.3      0.000      0.000
REMARK  13 active torsions:
REMARK  status: ('A' for Active; 'I' for Inactive)
REMARK    1  A    between atoms: C13_3  and  N_18 
REMARK    2  A    between atoms: C13_3  and  C4_37 
REMARK    3  A    between atoms: C20_9  and  O6_59 
REMARK    4  A    between atoms: C21_25  and  C24_12 
REMARK       I    between atoms: C24_12  and  N2_49 
REMARK    5  A    between atoms: C25_13  and  S_60 
REMARK    6  A    between atoms: C28_15  and  N3_50 
REMARK    7  A    between atoms: C31_17  and  C32_29 
REMARK    8  A    between atoms: C31_17  and  N3_50 
REMARK    9  A    between atoms: C18_23  and  N1_48 
REMARK   10  A    between atoms: C27_26  and  N4_51 
REMARK   11  A    between atoms: C37_34  and  O6_59 
REMARK   12  A    between atoms: C5_43  and  C7_45 
REMARK   13  A    between atoms: N2_49  and  S_60 
ROOT
HETATM    1  C19 LBM A   1     -17.270   3.020 -10.637  1.00  0.00     0.067 A 
HETATM    2  C20 LBM A   1     -17.720   3.197  -9.351  1.00  0.00     0.094 A 
HETATM    3  C22 LBM A   1     -17.008   5.468  -9.390  1.00  0.00     0.022 A 
HETATM    4  C23 LBM A   1     -16.568   5.300 -10.689  1.00  0.00     0.030 A 
HETATM    5  C18 LBM A   1     -16.702   4.065 -11.339  1.00  0.00     0.033 A 
HETATM    6  C21 LBM A   1     -17.614   4.418  -8.686  1.00  0.00     0.067 A 
ENDROOT
BRANCH   6   7
HETATM    7  C24 LBM A   1     -18.081   4.643  -7.278  1.00  0.00     0.268 C 
HETATM    8  O   LBM A   1     -19.231   4.378  -6.909  1.00  0.00    -0.267 OA
HETATM    9  N2  LBM A   1     -17.153   5.138  -6.383  1.00  0.00    -0.246 N 
HETATM   10  HN2 LBM A   1     -16.283   5.515  -6.729  1.00  0.00     0.182 HD
BRANCH   9  11
HETATM   11  S   LBM A   1     -17.434   5.127  -4.802  1.00  0.00     0.265 S 
HETATM   12  O1  LBM A   1     -18.852   5.277  -4.551  1.00  0.00    -0.200 OA
HETATM   13  O2  LBM A   1     -16.535   6.084  -4.237  1.00  0.00    -0.200 OA
BRANCH  11  14
HETATM   14  C25 LBM A   1     -16.941   3.492  -4.277  1.00  0.00     0.082 A 
HETATM   15  C26 LBM A   1     -15.598   3.276  -3.971  1.00  0.00     0.063 A 
HETATM   16  C27 LBM A   1     -15.188   2.008  -3.604  1.00  0.00     0.130 A 
HETATM   17  C28 LBM A   1     -16.079   0.905  -3.513  1.00  0.00     0.061 A 
HETATM   18  C29 LBM A   1     -17.420   1.170  -3.853  1.00  0.00     0.033 A 
HETATM   19  C30 LBM A   1     -17.850   2.453  -4.208  1.00  0.00     0.028 A 
BRANCH  16  20
HETATM   20  N4  LBM A   1     -13.756   1.864  -3.364  1.00  0.00    -0.113 N 
HETATM   21  O4  LBM A   1     -13.317   0.793  -2.992  1.00  0.00    -0.532 OA
HETATM   22  O5  LBM A   1     -13.048   2.856  -3.522  1.00  0.00    -0.532 OA
ENDBRANCH  16  20
BRANCH  17  23
HETATM   23  N3  LBM A   1     -15.643  -0.338  -3.092  1.00  0.00    -0.388 N 
HETATM   24  HN3 LBM A   1     -14.667  -0.437  -2.851  1.00  0.00     0.159 HD
BRANCH  23  25
HETATM   25  C31 LBM A   1     -16.493  -1.516  -2.971  1.00  0.00     0.124 C 
BRANCH  25  26
HETATM   26  C32 LBM A   1     -15.638  -2.755  -2.748  1.00  0.00     0.007 C 
HETATM   27  C33 LBM A   1     -14.468  -2.460  -1.817  1.00  0.00     0.032 C 
HETATM   28  C34 LBM A   1     -13.662  -3.720  -1.588  1.00  0.00     0.168 C 
HETATM   29  O3  LBM A   1     -14.465  -4.751  -1.022  1.00  0.00    -0.391 OA
HETATM   30  C35 LBM A   1     -15.516  -5.096  -1.927  1.00  0.00     0.168 C 
HETATM   31  C36 LBM A   1     -16.425  -3.916  -2.174  1.00  0.00     0.032 C 
ENDBRANCH  25  26
ENDBRANCH  23  25
ENDBRANCH  17  23
ENDBRANCH  11  14
ENDBRANCH   9  11
ENDBRANCH   6   7
BRANCH   2  32
HETATM   32  O6  LBM A   1     -18.258   2.120  -8.670  1.00  0.00    -0.308 OA
BRANCH  32  33
HETATM   33  C37 LBM A   1     -17.446   1.199  -8.040  1.00  0.00     0.094 A 
HETATM   34  C38 LBM A   1     -17.938  -0.052  -7.726  1.00  0.00     0.156 A 
HETATM   35  N5  LBM A   1     -17.205  -1.017  -7.155  1.00  0.00    -0.240 NA
HETATM   36  C39 LBM A   1     -15.933  -0.676  -6.819  1.00  0.00     0.137 A 
HETATM   37  C40 LBM A   1     -15.358   0.587  -7.068  1.00  0.00     0.014 A 
HETATM   38  N6  LBM A   1     -14.984  -1.496  -6.281  1.00  0.00    -0.350 N 
HETATM   39  C41 LBM A   1     -16.129   1.542  -7.722  1.00  0.00     0.054 A 
HETATM   40  C42 LBM A   1     -13.971   0.492  -6.624  1.00  0.00     0.032 A 
HETATM   41  C43 LBM A   1     -13.800  -0.779  -6.168  1.00  0.00     0.090 A 
HETATM   42  HN6 LBM A   1     -15.120  -2.458  -6.011  1.00  0.00     0.166 HD
ENDBRANCH  32  33
ENDBRANCH   2  32
BRANCH   5  43
HETATM   43  N1  LBM A   1     -16.237   3.871 -12.628  1.00  0.00    -0.377 N 
HETATM   44  C15 LBM A   1     -15.456   4.888 -13.348  1.00  0.00     0.153 C 
HETATM   45  C14 LBM A   1     -14.669   4.245 -14.497  1.00  0.00     0.292 C 
HETATM   46  N   LBM A   1     -15.556   3.505 -15.424  1.00  0.00     0.095 N 
HETATM   47  C17 LBM A   1     -16.279   2.474 -14.644  1.00  0.00     0.292 C 
HETATM   48  C16 LBM A   1     -17.100   3.122 -13.543  1.00  0.00     0.153 C 
BRANCH  46  49
HETATM   49  C13 LBM A   1     -14.786   2.874 -16.513  1.00  0.00     0.307 C 
BRANCH  49  50
HETATM   50  C4  LBM A   1     -14.030   3.835 -17.391  1.00  0.00    -0.045 C 
HETATM   51  C3  LBM A   1     -14.824   4.919 -18.075  1.00  0.00     0.037 C 
HETATM   52  C2  LBM A   1     -14.040   5.443 -19.269  1.00  0.00     0.013 C 
HETATM   53  C1  LBM A   1     -12.612   5.842 -18.882  1.00  0.00    -0.043 C 
HETATM   54  C   LBM A   1     -11.900   6.464 -20.082  1.00  0.00     0.015 C 
HETATM   55  C44 LBM A   1     -12.640   6.846 -17.734  1.00  0.00     0.015 C 
HETATM   56  C6  LBM A   1     -11.865   4.581 -18.442  1.00  0.00     0.048 C 
HETATM   57  C5  LBM A   1     -12.691   3.635 -17.628  1.00  0.00    -0.043 C 
BRANCH  57  58
HETATM   58  C7  LBM A   1     -11.944   2.455 -17.148  1.00  0.00    -0.029 A 
HETATM   59  C12 LBM A   1     -11.974   1.263 -17.871  1.00  0.00     0.013 A 
HETATM   60  C11 LBM A   1     -11.221   0.186 -17.463  1.00  0.00     0.024 A 
HETATM   61  C10 LBM A   1     -10.462   0.263 -16.304  1.00  0.00     0.034 A 
HETATM   62  C9  LBM A   1     -10.455   1.430 -15.556  1.00  0.00     0.024 A 
HETATM   63 CL   LBM A   1      -9.576  -1.118 -15.758  1.00  0.00    -0.084 Cl
HETATM   64  C8  LBM A   1     -11.187   2.515 -15.979  1.00  0.00     0.013 A 
ENDBRANCH  57  58
ENDBRANCH  49  50
ENDBRANCH  46  49
ENDBRANCH   5  43
TORSDOF 13
ENDMDL
MODEL 2
REMARK VINA RESULT:     -11.7      1.207      1.758
REMARK  13 active torsions:
REMARK  status: ('A' for Active; 'I' for Inactive)
REMARK    1  A    between atoms: C13_3  and  N_18 
REMARK    2  A    between atoms: C13_3  and  C4_37 
REMARK    3  A    between atoms: C20_9  and  O6_59 
REMARK    4  A    between atoms: C21_25  and  C24_12 
REMARK       I    between atoms: C24_12  and  N2_49 
REMARK    5  A    between atoms: C25_13  and  S_60 
REMARK    6  A    between atoms: C28_15  and  N3_50 
REMARK    7  A    between atoms: C31_17  and  C32_29 
REMARK    8  A    between atoms: C31_17  and  N3_50 
REMARK    9  A    between atoms: C18_23  and  N1_48 
REMARK   10  A    between atoms: C27_26  and  N4_51 
REMARK   11  A    between atoms: C37_34  and  O6_59 
REMARK   12  A    between atoms: C5_43  and  C7_45 
REMARK   13  A    between atoms: N2_49  and  S_60 
ROOT
HETATM    1  C19 LBM A   1     -17.208   3.240 -10.876  1.00  0.00     0.067 A 
HETATM    2  C20 LBM A   1     -17.596   3.477  -9.579  1.00  0.00     0.094 A 
HETATM    3  C22 LBM A   1     -16.643   5.657  -9.668  1.00  0.00     0.022 A 
HETATM    4  C23 LBM A   1     -16.265   5.430 -10.978  1.00  0.00     0.030 A 
HETATM    5  C18 LBM A   1     -16.552   4.211 -11.608  1.00  0.00     0.033 A 
HETATM    6  C21 LBM A   1     -17.337   4.686  -8.933  1.00  0.00     0.067 A 
ENDROOT
BRANCH   6   7
HETATM    7  C24 LBM A   1     -17.733   4.974  -7.515  1.00  0.00     0.268 C 
HETATM    8  O   LBM A   1     -18.735   5.639  -7.226  1.00  0.00    -0.267 OA
HETATM    9  N2  LBM A   1     -16.940   4.432  -6.523  1.00  0.00    -0.246 N 
HETATM   10  HN2 LBM A   1     -16.038   4.048  -6.763  1.00  0.00     0.182 HD
BRANCH   9  11
HETATM   11  S   LBM A   1     -17.426   4.403  -4.993  1.00  0.00     0.265 S 
HETATM   12  O1  LBM A   1     -18.874   4.398  -4.934  1.00  0.00    -0.200 OA
HETATM   13  O2  LBM A   1     -16.720   5.458  -4.336  1.00  0.00    -0.200 OA
BRANCH  11  14
HETATM   14  C25 LBM A   1     -16.835   2.837  -4.369  1.00  0.00     0.082 A 
HETATM   15  C26 LBM A   1     -17.760   1.810  -4.184  1.00  0.00     0.063 A 
HETATM   16  C27 LBM A   1     -17.331   0.605  -3.662  1.00  0.00     0.130 A 
HETATM   17  C28 LBM A   1     -15.977   0.355  -3.310  1.00  0.00     0.061 A 
HETATM   18  C29 LBM A   1     -15.086   1.431  -3.495  1.00  0.00     0.033 A 
HETATM   19  C30 LBM A   1     -15.505   2.649  -4.040  1.00  0.00     0.028 A 
BRANCH  16  20
HETATM   20  N4  LBM A   1     -18.378  -0.386  -3.445  1.00  0.00    -0.113 N 
HETATM   21  O4  LBM A   1     -19.128  -0.674  -4.358  1.00  0.00    -0.532 OA
HETATM   22  O5  LBM A   1     -18.480  -0.873  -2.322  1.00  0.00    -0.532 OA
ENDBRANCH  16  20
BRANCH  17  23
HETATM   23  N3  LBM A   1     -15.573  -0.881  -2.838  1.00  0.00    -0.388 N 
HETATM   24  HN3 LBM A   1     -16.258  -1.623  -2.818  1.00  0.00     0.159 HD
BRANCH  23  25
HETATM   25  C31 LBM A   1     -14.228  -1.188  -2.368  1.00  0.00     0.124 C 
BRANCH  25  26
HETATM   26  C32 LBM A   1     -14.205  -2.564  -1.718  1.00  0.00     0.007 C 
HETATM   27  C33 LBM A   1     -15.234  -2.665  -0.599  1.00  0.00     0.032 C 
HETATM   28  C34 LBM A   1     -15.209  -4.055  -0.000  1.00  0.00     0.168 C 
HETATM   29  O3  LBM A   1     -15.487  -5.045  -0.985  1.00  0.00    -0.391 OA
HETATM   30  C35 LBM A   1     -14.477  -5.018  -1.997  1.00  0.00     0.168 C 
HETATM   31  C36 LBM A   1     -14.461  -3.685  -2.706  1.00  0.00     0.032 C 
ENDBRANCH  25  26
ENDBRANCH  23  25
ENDBRANCH  17  23
ENDBRANCH  11  14
ENDBRANCH   9  11
ENDBRANCH   6   7
BRANCH   2  32
HETATM   32  O6  LBM A   1     -18.227   2.472  -8.869  1.00  0.00    -0.308 OA
BRANCH  32  33
HETATM   33  C37 LBM A   1     -17.499   1.499  -8.215  1.00  0.00     0.094 A 
HETATM   34  C38 LBM A   1     -18.106   0.314  -7.848  1.00  0.00     0.156 A 
HETATM   35  N5  LBM A   1     -17.461  -0.696  -7.251  1.00  0.00    -0.240 NA
HETATM   36  C39 LBM A   1     -16.157  -0.471  -6.944  1.00  0.00     0.137 A 
HETATM   37  C40 LBM A   1     -15.465   0.720  -7.248  1.00  0.00     0.014 A 
HETATM   38  N6  LBM A   1     -15.285  -1.360  -6.387  1.00  0.00    -0.350 N 
HETATM   39  C41 LBM A   1     -16.150   1.722  -7.927  1.00  0.00     0.054 A 
HETATM   40  C42 LBM A   1     -14.087   0.504  -6.818  1.00  0.00     0.032 A 
HETATM   41  C43 LBM A   1     -14.034  -0.760  -6.317  1.00  0.00     0.090 A 
HETATM   42  HN6 LBM A   1     -15.510  -2.294  -6.079  1.00  0.00     0.166 HD
ENDBRANCH  32  33
ENDBRANCH   2  32
BRANCH   5  43
HETATM   43  N1  LBM A   1     -16.151   3.955 -12.908  1.00  0.00    -0.377 N 
HETATM   44  C15 LBM A   1     -15.697   5.017 -13.818  1.00  0.00     0.153 C 
HETATM   45  C14 LBM A   1     -14.865   4.422 -14.961  1.00  0.00     0.292 C 
HETATM   46  N   LBM A   1     -15.612   3.378 -15.699  1.00  0.00     0.095 N 
HETATM   47  C17 LBM A   1     -16.003   2.324 -14.734  1.00  0.00     0.292 C 
HETATM   48  C16 LBM A   1     -16.872   2.908 -13.635  1.00  0.00     0.153 C 
BRANCH  46  49
HETATM   49  C13 LBM A   1     -14.795   2.799 -16.783  1.00  0.00     0.307 C 
BRANCH  49  50
HETATM   50  C4  LBM A   1     -14.025   3.803 -17.598  1.00  0.00    -0.045 C 
HETATM   51  C3  LBM A   1     -14.819   4.867 -18.315  1.00  0.00     0.037 C 
HETATM   52  C2  LBM A   1     -13.985   5.441 -19.451  1.00  0.00     0.013 C 
HETATM   53  C1  LBM A   1     -12.600   5.888 -18.971  1.00  0.00    -0.043 C 
HETATM   54  C   LBM A   1     -11.841   6.557 -20.115  1.00  0.00     0.015 C 
HETATM   55  C44 LBM A   1     -12.738   6.871 -17.813  1.00  0.00     0.015 C 
HETATM   56  C6  LBM A   1     -11.831   4.650 -18.503  1.00  0.00     0.048 C 
HETATM   57  C5  LBM A   1     -12.668   3.659 -17.755  1.00  0.00    -0.043 C 
BRANCH  57  58
HETATM   58  C7  LBM A   1     -11.905   2.501 -17.246  1.00  0.00    -0.029 A 
HETATM   59  C12 LBM A   1     -11.251   2.578 -16.017  1.00  0.00     0.013 A 
HETATM   60  C11 LBM A   1     -10.601   1.476 -15.508  1.00  0.00     0.024 A 
HETATM   61  C10 LBM A   1     -10.551   0.297 -16.238  1.00  0.00     0.034 A 
HETATM   62  C9  LBM A   1     -11.164   0.222 -17.479  1.00  0.00     0.024 A 
HETATM   63 CL   LBM A   1      -9.670  -1.060 -15.626  1.00  0.00    -0.084 Cl
HETATM   64  C8  LBM A   1     -11.837   1.314 -17.973  1.00  0.00     0.013 A 
ENDBRANCH  57  58
ENDBRANCH  49  50
ENDBRANCH  46  49
ENDBRANCH   5  43
TORSDOF 13
ENDMDL
MODEL 3
REMARK VINA RESULT:     -10.9      1.131      1.630
REMARK  13 active torsions:
REMARK  status: ('A' for Active; 'I' for Inactive)
REMARK    1  A    between atoms: C13_3  and  N_18 
REMARK    2  A    between atoms: C13_3  and  C4_37 
REMARK    3  A    between atoms: C20_9  and  O6_59 
REMARK    4  A    between atoms: C21_25  and  C24_12 
REMARK       I    between atoms: C24_12  and  N2_49 
REMARK    5  A    between atoms: C25_13  and  S_60 
REMARK    6  A    between atoms: C28_15  and  N3_50 
REMARK    7  A    between atoms: C31_17  and  C32_29 
REMARK    8  A    between atoms: C31_17  and  N3_50 
REMARK    9  A    between atoms: C18_23  and  N1_48 
REMARK   10  A    between atoms: C27_26  and  N4_51 
REMARK   11  A    between atoms: C37_34  and  O6_59 
REMARK   12  A    between atoms: C5_43  and  C7_45 
REMARK   13  A    between atoms: N2_49  and  S_60 
ROOT
HETATM    1  C19 LBM A   1     -17.615   3.339 -10.789  1.00  0.00     0.067 A 
HETATM    2  C20 LBM A   1     -18.068   3.524  -9.505  1.00  0.00     0.094 A 
HETATM    3  C22 LBM A   1     -16.511   5.298  -9.188  1.00  0.00     0.022 A 
HETATM    4  C23 LBM A   1     -16.063   5.125 -10.484  1.00  0.00     0.030 A 
HETATM    5  C18 LBM A   1     -16.620   4.141 -11.313  1.00  0.00     0.033 A 
HETATM    6  C21 LBM A   1     -17.543   4.506  -8.665  1.00  0.00     0.067 A 
ENDROOT
BRANCH   6   7
HETATM    7  C24 LBM A   1     -18.003   4.727  -7.254  1.00  0.00     0.268 C 
HETATM    8  O   LBM A   1     -18.861   5.568  -6.958  1.00  0.00    -0.267 OA
HETATM    9  N2  LBM A   1     -17.446   3.920  -6.281  1.00  0.00    -0.246 N 
HETATM   10  HN2 LBM A   1     -16.630   3.369  -6.502  1.00  0.00     0.182 HD
BRANCH   9  11
HETATM   11  S   LBM A   1     -18.073   3.843  -4.805  1.00  0.00     0.265 S 
HETATM   12  O1  LBM A   1     -19.508   3.665  -4.887  1.00  0.00    -0.200 OA
HETATM   13  O2  LBM A   1     -17.565   4.980  -4.103  1.00  0.00    -0.200 OA
BRANCH  11  14
HETATM   14  C25 LBM A   1     -17.363   2.365  -4.099  1.00  0.00     0.082 A 
HETATM   15  C26 LBM A   1     -16.115   1.948  -4.561  1.00  0.00     0.063 A 
HETATM   16  C27 LBM A   1     -15.567   0.783  -4.058  1.00  0.00     0.130 A 
HETATM   17  C28 LBM A   1     -16.216  -0.014  -3.077  1.00  0.00     0.061 A 
HETATM   18  C29 LBM A   1     -17.483   0.438  -2.659  1.00  0.00     0.033 A 
HETATM   19  C30 LBM A   1     -18.040   1.625  -3.147  1.00  0.00     0.028 A 
BRANCH  16  20
HETATM   20  N4  LBM A   1     -14.290   0.394  -4.645  1.00  0.00    -0.113 N 
HETATM   21  O4  LBM A   1     -14.199  -0.669  -5.229  1.00  0.00    -0.532 OA
HETATM   22  O5  LBM A   1     -13.338   1.156  -4.496  1.00  0.00    -0.532 OA
ENDBRANCH  16  20
BRANCH  17  23
HETATM   23  N3  LBM A   1     -15.615  -1.147  -2.558  1.00  0.00    -0.388 N 
HETATM   24  HN3 LBM A   1     -14.771  -1.025  -2.017  1.00  0.00     0.159 HD
BRANCH  23  25
HETATM   25  C31 LBM A   1     -16.114  -2.505  -2.738  1.00  0.00     0.124 C 
BRANCH  25  26
HETATM   26  C32 LBM A   1     -14.995  -3.507  -2.494  1.00  0.00     0.007 C 
HETATM   27  C33 LBM A   1     -13.981  -2.972  -1.490  1.00  0.00     0.032 C 
HETATM   28  C34 LBM A   1     -12.904  -4.007  -1.245  1.00  0.00     0.168 C 
HETATM   29  O3  LBM A   1     -13.460  -5.222  -0.751  1.00  0.00    -0.391 OA
HETATM   30  C35 LBM A   1     -14.348  -5.778  -1.724  1.00  0.00     0.168 C 
HETATM   31  C36 LBM A   1     -15.503  -4.845  -1.995  1.00  0.00     0.032 C 
ENDBRANCH  25  26
ENDBRANCH  23  25
ENDBRANCH  17  23
ENDBRANCH  11  14
ENDBRANCH   9  11
ENDBRANCH   6   7
BRANCH   2  32
HETATM   32  O6  LBM A   1     -19.047   2.685  -9.007  1.00  0.00    -0.308 OA
BRANCH  32  33
HETATM   33  C37 LBM A   1     -18.722   1.617  -8.195  1.00  0.00     0.094 A 
HETATM   34  C38 LBM A   1     -17.473   1.036  -8.288  1.00  0.00     0.156 A 
HETATM   35  N5  LBM A   1     -17.064   0.026  -7.509  1.00  0.00    -0.240 NA
HETATM   36  C39 LBM A   1     -17.987  -0.468  -6.644  1.00  0.00     0.137 A 
HETATM   37  C40 LBM A   1     -19.296   0.038  -6.504  1.00  0.00     0.014 A 
HETATM   38  N6  LBM A   1     -17.793  -1.451  -5.717  1.00  0.00    -0.350 N 
HETATM   39  C41 LBM A   1     -19.663   1.130  -7.284  1.00  0.00     0.054 A 
HETATM   40  C42 LBM A   1     -19.909  -0.725  -5.422  1.00  0.00     0.032 A 
HETATM   41  C43 LBM A   1     -18.962  -1.597  -4.982  1.00  0.00     0.090 A 
HETATM   42  HN6 LBM A   1     -16.944  -1.982  -5.589  1.00  0.00     0.166 HD
ENDBRANCH  32  33
ENDBRANCH   2  32
BRANCH   5  43
HETATM   43  N1  LBM A   1     -16.159   3.934 -12.601  1.00  0.00    -0.377 N 
HETATM   44  C15 LBM A   1     -15.331   4.919 -13.312  1.00  0.00     0.153 C 
HETATM   45  C14 LBM A   1     -14.570   4.248 -14.462  1.00  0.00     0.292 C 
HETATM   46  N   LBM A   1     -15.486   3.555 -15.398  1.00  0.00     0.095 N 
HETATM   47  C17 LBM A   1     -16.259   2.553 -14.626  1.00  0.00     0.292 C 
HETATM   48  C16 LBM A   1     -17.053   3.231 -13.524  1.00  0.00     0.153 C 
BRANCH  46  49
HETATM   49  C13 LBM A   1     -14.742   2.896 -16.488  1.00  0.00     0.307 C 
BRANCH  49  50
HETATM   50  C4  LBM A   1     -13.981   3.833 -17.388  1.00  0.00    -0.045 C 
HETATM   51  C3  LBM A   1     -14.766   4.919 -18.080  1.00  0.00     0.037 C 
HETATM   52  C2  LBM A   1     -13.988   5.413 -19.290  1.00  0.00     0.013 C 
HETATM   53  C1  LBM A   1     -12.550   5.795 -18.925  1.00  0.00    -0.043 C 
HETATM   54  C   LBM A   1     -11.842   6.388 -20.142  1.00  0.00     0.015 C 
HETATM   55  C44 LBM A   1     -12.549   6.816 -17.792  1.00  0.00     0.015 C 
HETATM   56  C6  LBM A   1     -11.817   4.528 -18.474  1.00  0.00     0.048 C 
HETATM   57  C5  LBM A   1     -12.649   3.608 -17.637  1.00  0.00    -0.043 C 
BRANCH  57  58
HETATM   58  C7  LBM A   1     -11.914   2.423 -17.148  1.00  0.00    -0.029 A 
HETATM   59  C12 LBM A   1     -11.953   1.228 -17.866  1.00  0.00     0.013 A 
HETATM   60  C11 LBM A   1     -11.212   0.146 -17.450  1.00  0.00     0.024 A 
HETATM   61  C10 LBM A   1     -10.457   0.222 -16.287  1.00  0.00     0.034 A 
HETATM   62  C9  LBM A   1     -10.442   1.393 -15.545  1.00  0.00     0.024 A 
HETATM   63 CL   LBM A   1      -9.586  -1.165 -15.731  1.00  0.00    -0.084 Cl
HETATM   64  C8  LBM A   1     -11.162   2.482 -15.977  1.00  0.00     0.013 A 
ENDBRANCH  57  58
ENDBRANCH  49  50
ENDBRANCH  46  49
ENDBRANCH   5  43
TORSDOF 13
ENDMDL
MODEL 4
REMARK VINA RESULT:     -10.6      1.931      2.390
REMARK  13 active torsions:
REMARK  status: ('A' for Active; 'I' for Inactive)
REMARK    1  A    between atoms: C13_3  and  N_18 
REMARK    2  A    between atoms: C13_3  and  C4_37 
REMARK    3  A    between atoms: C20_9  and  O6_59 
REMARK    4  A    between atoms: C21_25  and  C24_12 
REMARK       I    between atoms: C24_12  and  N2_49 
REMARK    5  A    between atoms: C25_13  and  S_60 
REMARK    6  A    between atoms: C28_15  and  N3_50 
REMARK    7  A    between atoms: C31_17  and  C32_29 
REMARK    8  A    between atoms: C31_17  and  N3_50 
REMARK    9  A    between atoms: C18_23  and  N1_48 
REMARK   10  A    between atoms: C27_26  and  N4_51 
REMARK   11  A    between atoms: C37_34  and  O6_59 
REMARK   12  A    between atoms: C5_43  and  C7_45 
REMARK   13  A    between atoms: N2_49  and  S_60 
ROOT
HETATM    1  C19 LBM A   1     -17.199   3.030 -10.542  1.00  0.00     0.067 A 
HETATM    2  C20 LBM A   1     -17.644   3.210  -9.255  1.00  0.00     0.094 A 
HETATM    3  C22 LBM A   1     -16.948   5.486  -9.308  1.00  0.00     0.022 A 
HETATM    4  C23 LBM A   1     -16.513   5.314 -10.609  1.00  0.00     0.030 A 
HETATM    5  C18 LBM A   1     -16.642   4.075 -11.253  1.00  0.00     0.033 A 
HETATM    6  C21 LBM A   1     -17.543   4.435  -8.596  1.00  0.00     0.067 A 
ENDROOT
BRANCH   6   7
HETATM    7  C24 LBM A   1     -18.005   4.664  -7.187  1.00  0.00     0.268 C 
HETATM    8  O   LBM A   1     -19.157   5.021  -6.915  1.00  0.00    -0.267 OA
HETATM    9  N2  LBM A   1     -17.088   4.426  -6.183  1.00  0.00    -0.246 N 
HETATM   10  HN2 LBM A   1     -16.113   4.310  -6.418  1.00  0.00     0.182 HD
BRANCH   9  11
HETATM   11  S   LBM A   1     -17.543   4.331  -4.646  1.00  0.00     0.265 S 
HETATM   12  O1  LBM A   1     -18.740   5.120  -4.436  1.00  0.00    -0.200 OA
HETATM   13  O2  LBM A   1     -16.380   4.635  -3.872  1.00  0.00    -0.200 OA
BRANCH  11  14
HETATM   14  C25 LBM A   1     -17.958   2.610  -4.412  1.00  0.00     0.082 A 
HETATM   15  C26 LBM A   1     -17.051   1.801  -3.727  1.00  0.00     0.063 A 
HETATM   16  C27 LBM A   1     -17.333   0.457  -3.573  1.00  0.00     0.130 A 
HETATM   17  C28 LBM A   1     -18.518  -0.146  -4.075  1.00  0.00     0.061 A 
HETATM   18  C29 LBM A   1     -19.391   0.708  -4.778  1.00  0.00     0.033 A 
HETATM   19  C30 LBM A   1     -19.125   2.074  -4.924  1.00  0.00     0.028 A 
BRANCH  16  20
HETATM   20  N4  LBM A   1     -16.299  -0.321  -2.899  1.00  0.00    -0.113 N 
HETATM   21  O4  LBM A   1     -15.139  -0.194  -3.238  1.00  0.00    -0.532 OA
HETATM   22  O5  LBM A   1     -16.655  -1.106  -2.024  1.00  0.00    -0.532 OA
ENDBRANCH  16  20
BRANCH  17  23
HETATM   23  N3  LBM A   1     -18.792  -1.484  -3.857  1.00  0.00    -0.388 N 
HETATM   24  HN3 LBM A   1     -18.028  -2.079  -3.571  1.00  0.00     0.159 HD
BRANCH  23  25
HETATM   25  C31 LBM A   1     -20.106  -2.096  -4.011  1.00  0.00     0.124 C 
BRANCH  25  26
HETATM   26  C32 LBM A   1     -20.722  -2.358  -2.644  1.00  0.00     0.007 C 
HETATM   27  C33 LBM A   1     -19.655  -2.710  -1.615  1.00  0.00     0.032 C 
HETATM   28  C34 LBM A   1     -20.297  -2.928  -0.261  1.00  0.00     0.168 C 
HETATM   29  O3  LBM A   1     -20.999  -1.767   0.169  1.00  0.00    -0.391 OA
HETATM   30  C35 LBM A   1     -22.060  -1.478  -0.745  1.00  0.00     0.168 C 
HETATM   31  C36 LBM A   1     -21.518  -1.178  -2.122  1.00  0.00     0.032 C 
ENDBRANCH  25  26
ENDBRANCH  23  25
ENDBRANCH  17  23
ENDBRANCH  11  14
ENDBRANCH   9  11
ENDBRANCH   6   7
BRANCH   2  32
HETATM   32  O6  LBM A   1     -18.172   2.133  -8.566  1.00  0.00    -0.308 OA
BRANCH  32  33
HETATM   33  C37 LBM A   1     -17.349   1.209  -7.953  1.00  0.00     0.094 A 
HETATM   34  C38 LBM A   1     -17.790  -0.085  -7.763  1.00  0.00     0.156 A 
HETATM   35  N5  LBM A   1     -17.041  -1.052  -7.216  1.00  0.00    -0.240 NA
HETATM   36  C39 LBM A   1     -15.813  -0.674  -6.775  1.00  0.00     0.137 A 
HETATM   37  C40 LBM A   1     -15.294   0.632  -6.894  1.00  0.00     0.014 A 
HETATM   38  N6  LBM A   1     -14.855  -1.482  -6.236  1.00  0.00    -0.350 N 
HETATM   39  C41 LBM A   1     -16.076   1.593  -7.526  1.00  0.00     0.054 A 
HETATM   40  C42 LBM A   1     -13.934   0.574  -6.368  1.00  0.00     0.032 A 
HETATM   41  C43 LBM A   1     -13.721  -0.717  -5.996  1.00  0.00     0.090 A 
HETATM   42  HN6 LBM A   1     -14.954  -2.469  -6.046  1.00  0.00     0.166 HD
ENDBRANCH  32  33
ENDBRANCH   2  32
BRANCH   5  43
HETATM   43  N1  LBM A   1     -16.182   3.878 -12.542  1.00  0.00    -0.377 N 
HETATM   44  C15 LBM A   1     -15.342   4.862 -13.241  1.00  0.00     0.153 C 
HETATM   45  C14 LBM A   1     -14.586   4.197 -14.398  1.00  0.00     0.292 C 
HETATM   46  N   LBM A   1     -15.508   3.524 -15.342  1.00  0.00     0.095 N 
HETATM   47  C17 LBM A   1     -16.292   2.521 -14.583  1.00  0.00     0.292 C 
HETATM   48  C16 LBM A   1     -17.081   3.194 -13.474  1.00  0.00     0.153 C 
BRANCH  46  49
HETATM   49  C13 LBM A   1     -14.769   2.870 -16.439  1.00  0.00     0.307 C 
BRANCH  49  50
HETATM   50  C4  LBM A   1     -14.022   3.811 -17.345  1.00  0.00    -0.045 C 
HETATM   51  C3  LBM A   1     -14.821   4.889 -18.034  1.00  0.00     0.037 C 
HETATM   52  C2  LBM A   1     -14.055   5.388 -19.250  1.00  0.00     0.013 C 
HETATM   53  C1  LBM A   1     -12.618   5.782 -18.895  1.00  0.00    -0.043 C 
HETATM   54  C   LBM A   1     -11.923   6.380 -20.118  1.00  0.00     0.015 C 
HETATM   55  C44 LBM A   1     -12.618   6.806 -17.764  1.00  0.00     0.015 C 
HETATM   56  C6  LBM A   1     -11.871   4.524 -18.447  1.00  0.00     0.048 C 
HETATM   57  C5  LBM A   1     -12.689   3.597 -17.603  1.00  0.00    -0.043 C 
BRANCH  57  58
HETATM   58  C7  LBM A   1     -11.941   2.420 -17.117  1.00  0.00    -0.029 A 
HETATM   59  C12 LBM A   1     -11.986   1.219 -17.824  1.00  0.00     0.013 A 
HETATM   60  C11 LBM A   1     -11.233   0.144 -17.411  1.00  0.00     0.024 A 
HETATM   61  C10 LBM A   1     -10.460   0.232 -16.262  1.00  0.00     0.034 A 
HETATM   62  C9  LBM A   1     -10.439   1.409 -15.529  1.00  0.00     0.024 A 
HETATM   63 CL   LBM A   1      -9.574  -1.146 -15.709  1.00  0.00    -0.084 Cl
HETATM   64  C8  LBM A   1     -11.170   2.492 -15.958  1.00  0.00     0.013 A 
ENDBRANCH  57  58
ENDBRANCH  49  50
ENDBRANCH  46  49
ENDBRANCH   5  43
TORSDOF 13
ENDMDL
MODEL 5
REMARK VINA RESULT:     -10.5      3.337      6.447
REMARK  13 active torsions:
REMARK  status: ('A' for Active; 'I' for Inactive)
REMARK    1  A    between atoms: C13_3  and  N_18 
REMARK    2  A    between atoms: C13_3  and  C4_37 
REMARK    3  A    between atoms: C20_9  and  O6_59 
REMARK    4  A    between atoms: C21_25  and  C24_12 
REMARK       I    between atoms: C24_12  and  N2_49 
REMARK    5  A    between atoms: C25_13  and  S_60 
REMARK    6  A    between atoms: C28_15  and  N3_50 
REMARK    7  A    between atoms: C31_17  and  C32_29 
REMARK    8  A    between atoms: C31_17  and  N3_50 
REMARK    9  A    between atoms: C18_23  and  N1_48 
REMARK   10  A    between atoms: C27_26  and  N4_51 
REMARK   11  A    between atoms: C37_34  and  O6_59 
REMARK   12  A    between atoms: C5_43  and  C7_45 
REMARK   13  A    between atoms: N2_49  and  S_60 
ROOT
HETATM    1  C19 LBM A   1     -17.223   3.027 -10.440  1.00  0.00     0.067 A 
HETATM    2  C20 LBM A   1     -17.659   3.221  -9.151  1.00  0.00     0.094 A 
HETATM    3  C22 LBM A   1     -17.034   5.516  -9.260  1.00  0.00     0.022 A 
HETATM    4  C23 LBM A   1     -16.609   5.330 -10.561  1.00  0.00     0.030 A 
HETATM    5  C18 LBM A   1     -16.706   4.074 -11.178  1.00  0.00     0.033 A 
HETATM    6  C21 LBM A   1     -17.588   4.462  -8.519  1.00  0.00     0.067 A 
ENDROOT
BRANCH   6   7
HETATM    7  C24 LBM A   1     -18.042   4.706  -7.110  1.00  0.00     0.268 C 
HETATM    8  O   LBM A   1     -19.219   4.570  -6.757  1.00  0.00    -0.267 OA
HETATM    9  N2  LBM A   1     -17.072   5.066  -6.195  1.00  0.00    -0.246 N 
HETATM   10  HN2 LBM A   1     -16.160   5.345  -6.524  1.00  0.00     0.182 HD
BRANCH   9  11
HETATM   11  S   LBM A   1     -17.370   5.049  -4.618  1.00  0.00     0.265 S 
HETATM   12  O1  LBM A   1     -16.166   4.697  -3.892  1.00  0.00    -0.200 OA
HETATM   13  O2  LBM A   1     -18.533   4.235  -4.446  1.00  0.00    -0.200 OA
BRANCH  11  14
HETATM   14  C25 LBM A   1     -17.786   6.740  -4.226  1.00  0.00     0.082 A 
HETATM   15  C26 LBM A   1     -17.004   7.411  -3.286  1.00  0.00     0.063 A 
HETATM   16  C27 LBM A   1     -17.336   8.706  -2.937  1.00  0.00     0.130 A 
HETATM   17  C28 LBM A   1     -18.440   9.399  -3.502  1.00  0.00     0.061 A 
HETATM   18  C29 LBM A   1     -19.211   8.672  -4.430  1.00  0.00     0.033 A 
HETATM   19  C30 LBM A   1     -18.875   7.367  -4.805  1.00  0.00     0.028 A 
BRANCH  16  20
HETATM   20  N4  LBM A   1     -16.500   9.303  -1.901  1.00  0.00    -0.113 N 
HETATM   21  O4  LBM A   1     -16.269   8.678  -0.884  1.00  0.00    -0.532 OA
HETATM   22  O5  LBM A   1     -16.083  10.443  -2.091  1.00  0.00    -0.532 OA
ENDBRANCH  16  20
BRANCH  17  23
HETATM   23  N3  LBM A   1     -18.712  10.713  -3.167  1.00  0.00    -0.388 N 
HETATM   24  HN3 LBM A   1     -18.159  11.135  -2.435  1.00  0.00     0.159 HD
BRANCH  23  25
HETATM   25  C31 LBM A   1     -19.739  11.533  -3.798  1.00  0.00     0.124 C 
BRANCH  25  26
HETATM   26  C32 LBM A   1     -19.158  12.262  -5.000  1.00  0.00     0.007 C 
HETATM   27  C33 LBM A   1     -17.639  12.350  -4.913  1.00  0.00     0.032 C 
HETATM   28  C34 LBM A   1     -17.093  13.048  -6.141  1.00  0.00     0.168 C 
HETATM   29  O3  LBM A   1     -17.457  12.357  -7.331  1.00  0.00    -0.391 OA
HETATM   30  C35 LBM A   1     -18.880  12.345  -7.467  1.00  0.00     0.168 C 
HETATM   31  C36 LBM A   1     -19.525  11.609  -6.317  1.00  0.00     0.032 C 
ENDBRANCH  25  26
ENDBRANCH  23  25
ENDBRANCH  17  23
ENDBRANCH  11  14
ENDBRANCH   9  11
ENDBRANCH   6   7
BRANCH   2  32
HETATM   32  O6  LBM A   1     -18.146   2.143  -8.434  1.00  0.00    -0.308 OA
BRANCH  32  33
HETATM   33  C37 LBM A   1     -17.289   1.227  -7.859  1.00  0.00     0.094 A 
HETATM   34  C38 LBM A   1     -17.561  -0.124  -7.954  1.00  0.00     0.156 A 
HETATM   35  N5  LBM A   1     -16.761  -1.078  -7.461  1.00  0.00    -0.240 NA
HETATM   36  C39 LBM A   1     -15.670  -0.645  -6.777  1.00  0.00     0.137 A 
HETATM   37  C40 LBM A   1     -15.332   0.713  -6.599  1.00  0.00     0.014 A 
HETATM   38  N6  LBM A   1     -14.687  -1.419  -6.234  1.00  0.00    -0.350 N 
HETATM   39  C41 LBM A   1     -16.153   1.674  -7.181  1.00  0.00     0.054 A 
HETATM   40  C42 LBM A   1     -14.061   0.721  -5.883  1.00  0.00     0.032 A 
HETATM   41  C43 LBM A   1     -13.717  -0.582  -5.697  1.00  0.00     0.090 A 
HETATM   42  HN6 LBM A   1     -14.667  -2.428  -6.224  1.00  0.00     0.166 HD
ENDBRANCH  32  33
ENDBRANCH   2  32
BRANCH   5  43
HETATM   43  N1  LBM A   1     -16.254   3.865 -12.469  1.00  0.00    -0.377 N 
HETATM   44  C15 LBM A   1     -15.481   4.872 -13.209  1.00  0.00     0.153 C 
HETATM   45  C14 LBM A   1     -14.706   4.215 -14.358  1.00  0.00     0.292 C 
HETATM   46  N   LBM A   1     -15.602   3.464 -15.267  1.00  0.00     0.095 N 
HETATM   47  C17 LBM A   1     -16.318   2.442 -14.467  1.00  0.00     0.292 C 
HETATM   48  C16 LBM A   1     -17.127   3.104 -13.366  1.00  0.00     0.153 C 
BRANCH  46  49
HETATM   49  C13 LBM A   1     -14.844   2.819 -16.356  1.00  0.00     0.307 C 
BRANCH  49  50
HETATM   50  C4  LBM A   1     -14.134   3.772 -17.281  1.00  0.00    -0.045 C 
HETATM   51  C3  LBM A   1     -14.966   4.838 -17.948  1.00  0.00     0.037 C 
HETATM   52  C2  LBM A   1     -14.240   5.349 -19.183  1.00  0.00     0.013 C 
HETATM   53  C1  LBM A   1     -12.800   5.765 -18.864  1.00  0.00    -0.043 C 
HETATM   54  C   LBM A   1     -12.145   6.373 -20.103  1.00  0.00     0.015 C 
HETATM   55  C44 LBM A   1     -12.787   6.788 -17.733  1.00  0.00     0.015 C 
HETATM   56  C6  LBM A   1     -12.023   4.517 -18.436  1.00  0.00     0.048 C 
HETATM   57  C5  LBM A   1     -12.805   3.578 -17.572  1.00  0.00    -0.043 C 
BRANCH  57  58
HETATM   58  C7  LBM A   1     -12.028   2.413 -17.105  1.00  0.00    -0.029 A 
HETATM   59  C12 LBM A   1     -12.077   1.210 -17.809  1.00  0.00     0.013 A 
HETATM   60  C11 LBM A   1     -11.298   0.145 -17.416  1.00  0.00     0.024 A 
HETATM   61  C10 LBM A   1     -10.493   0.247 -16.290  1.00  0.00     0.034 A 
HETATM   62  C9  LBM A   1     -10.466   1.426 -15.561  1.00  0.00     0.024 A 
HETATM   63 CL   LBM A   1      -9.572  -1.118 -15.761  1.00  0.00    -0.084 Cl
HETATM   64  C8  LBM A   1     -11.224   2.497 -15.970  1.00  0.00     0.013 A 
ENDBRANCH  57  58
ENDBRANCH  49  50
ENDBRANCH  46  49
ENDBRANCH   5  43
TORSDOF 13
ENDMDL
MODEL 6
REMARK VINA RESULT:     -10.0      2.164      4.160
REMARK  13 active torsions:
REMARK  status: ('A' for Active; 'I' for Inactive)
REMARK    1  A    between atoms: C13_3  and  N_18 
REMARK    2  A    between atoms: C13_3  and  C4_37 
REMARK    3  A    between atoms: C20_9  and  O6_59 
REMARK    4  A    between atoms: C21_25  and  C24_12 
REMARK       I    between atoms: C24_12  and  N2_49 
REMARK    5  A    between atoms: C25_13  and  S_60 
REMARK    6  A    between atoms: C28_15  and  N3_50 
REMARK    7  A    between atoms: C31_17  and  C32_29 
REMARK    8  A    between atoms: C31_17  and  N3_50 
REMARK    9  A    between atoms: C18_23  and  N1_48 
REMARK   10  A    between atoms: C27_26  and  N4_51 
REMARK   11  A    between atoms: C37_34  and  O6_59 
REMARK   12  A    between atoms: C5_43  and  C7_45 
REMARK   13  A    between atoms: N2_49  and  S_60 
ROOT
HETATM    1  C19 LBM A   1     -17.044   5.119 -10.439  1.00  0.00     0.067 A 
HETATM    2  C20 LBM A   1     -17.447   5.256  -9.133  1.00  0.00     0.094 A 
HETATM    3  C22 LBM A   1     -17.048   2.942  -8.741  1.00  0.00     0.022 A 
HETATM    4  C23 LBM A   1     -16.626   2.801 -10.049  1.00  0.00     0.030 A 
HETATM    5  C18 LBM A   1     -16.609   3.900 -10.921  1.00  0.00     0.033 A 
HETATM    6  C21 LBM A   1     -17.459   4.185  -8.239  1.00  0.00     0.067 A 
ENDROOT
BRANCH   6   7
HETATM    7  C24 LBM A   1     -17.906   4.296  -6.811  1.00  0.00     0.268 C 
HETATM    8  O   LBM A   1     -18.962   3.798  -6.404  1.00  0.00    -0.267 OA
HETATM    9  N2  LBM A   1     -17.063   4.963  -5.943  1.00  0.00    -0.246 N 
HETATM   10  HN2 LBM A   1     -16.303   5.513  -6.315  1.00  0.00     0.182 HD
BRANCH   9  11
HETATM   11  S   LBM A   1     -17.272   4.879  -4.354  1.00  0.00     0.265 S 
HETATM   12  O1  LBM A   1     -18.660   5.129  -4.024  1.00  0.00    -0.200 OA
HETATM   13  O2  LBM A   1     -16.271   5.724  -3.781  1.00  0.00    -0.200 OA
BRANCH  11  14
HETATM   14  C25 LBM A   1     -16.895   3.181  -3.946  1.00  0.00     0.082 A 
HETATM   15  C26 LBM A   1     -15.575   2.750  -4.077  1.00  0.00     0.063 A 
HETATM   16  C27 LBM A   1     -15.270   1.429  -3.808  1.00  0.00     0.130 A 
HETATM   17  C28 LBM A   1     -16.244   0.481  -3.392  1.00  0.00     0.061 A 
HETATM   18  C29 LBM A   1     -17.565   0.961  -3.296  1.00  0.00     0.033 A 
HETATM   19  C30 LBM A   1     -17.883   2.299  -3.548  1.00  0.00     0.028 A 
BRANCH  16  20
HETATM   20  N4  LBM A   1     -13.878   1.056  -4.032  1.00  0.00    -0.113 N 
HETATM   21  O4  LBM A   1     -13.016   1.492  -3.294  1.00  0.00    -0.532 OA
HETATM   22  O5  LBM A   1     -13.629   0.329  -4.990  1.00  0.00    -0.532 OA
ENDBRANCH  16  20
BRANCH  17  23
HETATM   23  N3  LBM A   1     -15.894  -0.820  -3.082  1.00  0.00    -0.388 N 
HETATM   24  HN3 LBM A   1     -14.910  -1.040  -3.022  1.00  0.00     0.159 HD
BRANCH  23  25
HETATM   25  C31 LBM A   1     -16.845  -1.897  -2.834  1.00  0.00     0.124 C 
BRANCH  25  26
HETATM   26  C32 LBM A   1     -16.140  -3.073  -2.173  1.00  0.00     0.007 C 
HETATM   27  C33 LBM A   1     -16.948  -4.356  -2.321  1.00  0.00     0.032 C 
HETATM   28  C34 LBM A   1     -16.202  -5.510  -1.685  1.00  0.00     0.168 C 
HETATM   29  O3  LBM A   1     -14.923  -5.688  -2.282  1.00  0.00    -0.391 OA
HETATM   30  C35 LBM A   1     -14.124  -4.520  -2.073  1.00  0.00     0.168 C 
HETATM   31  C36 LBM A   1     -14.752  -3.314  -2.730  1.00  0.00     0.032 C 
ENDBRANCH  25  26
ENDBRANCH  23  25
ENDBRANCH  17  23
ENDBRANCH  11  14
ENDBRANCH   9  11
ENDBRANCH   6   7
BRANCH   2  32
HETATM   32  O6  LBM A   1     -17.901   6.486  -8.692  1.00  0.00    -0.308 OA
BRANCH  32  33
HETATM   33  C37 LBM A   1     -19.146   6.957  -9.057  1.00  0.00     0.094 A 
HETATM   34  C38 LBM A   1     -20.246   6.127  -8.981  1.00  0.00     0.156 A 
HETATM   35  N5  LBM A   1     -21.493   6.517  -9.275  1.00  0.00    -0.240 NA
HETATM   36  C39 LBM A   1     -21.624   7.788  -9.738  1.00  0.00     0.137 A 
HETATM   37  C40 LBM A   1     -20.553   8.695  -9.882  1.00  0.00     0.014 A 
HETATM   38  N6  LBM A   1     -22.789   8.426 -10.050  1.00  0.00    -0.350 N 
HETATM   39  C41 LBM A   1     -19.282   8.274  -9.505  1.00  0.00     0.054 A 
HETATM   40  C42 LBM A   1     -21.148   9.951 -10.327  1.00  0.00     0.032 A 
HETATM   41  C43 LBM A   1     -22.489   9.736 -10.404  1.00  0.00     0.090 A 
HETATM   42  HN6 LBM A   1     -23.711   8.017 -10.027  1.00  0.00     0.166 HD
ENDBRANCH  32  33
ENDBRANCH   2  32
BRANCH   5  43
HETATM   43  N1  LBM A   1     -16.221   3.768 -12.243  1.00  0.00    -0.377 N 
HETATM   44  C15 LBM A   1     -15.331   4.733 -12.906  1.00  0.00     0.153 C 
HETATM   45  C14 LBM A   1     -14.683   4.101 -14.143  1.00  0.00     0.292 C 
HETATM   46  N   LBM A   1     -15.695   3.580 -15.090  1.00  0.00     0.095 N 
HETATM   47  C17 LBM A   1     -16.528   2.587 -14.372  1.00  0.00     0.292 C 
HETATM   48  C16 LBM A   1     -17.212   3.233 -13.179  1.00  0.00     0.153 C 
BRANCH  46  49
HETATM   49  C13 LBM A   1     -15.059   2.957 -16.266  1.00  0.00     0.307 C 
BRANCH  49  50
HETATM   50  C4  LBM A   1     -14.379   3.921 -17.201  1.00  0.00    -0.045 C 
HETATM   51  C3  LBM A   1     -15.238   4.974 -17.855  1.00  0.00     0.037 C 
HETATM   52  C2  LBM A   1     -14.538   5.497 -19.100  1.00  0.00     0.013 C 
HETATM   53  C1  LBM A   1     -13.100   5.935 -18.803  1.00  0.00    -0.043 C 
HETATM   54  C   LBM A   1     -12.473   6.554 -20.051  1.00  0.00     0.015 C 
HETATM   55  C44 LBM A   1     -13.086   6.958 -17.671  1.00  0.00     0.015 C 
HETATM   56  C6  LBM A   1     -12.297   4.700 -18.387  1.00  0.00     0.048 C 
HETATM   57  C5  LBM A   1     -13.052   3.748 -17.512  1.00  0.00    -0.043 C 
BRANCH  57  58
HETATM   58  C7  LBM A   1     -12.249   2.594 -17.058  1.00  0.00    -0.029 A 
HETATM   59  C12 LBM A   1     -12.238   1.413 -17.800  1.00  0.00     0.013 A 
HETATM   60  C11 LBM A   1     -11.434   0.363 -17.417  1.00  0.00     0.024 A 
HETATM   61  C10 LBM A   1     -10.666   0.456 -16.264  1.00  0.00     0.034 A 
HETATM   62  C9  LBM A   1     -10.701   1.611 -15.498  1.00  0.00     0.024 A 
HETATM   63 CL   LBM A   1      -9.716  -0.895 -15.750  1.00  0.00    -0.084 Cl
HETATM   64  C8  LBM A   1     -11.483   2.669 -15.897  1.00  0.00     0.013 A 
ENDBRANCH  57  58
ENDBRANCH  49  50
ENDBRANCH  46  49
ENDBRANCH   5  43
TORSDOF 13
ENDMDL
MODEL 7
REMARK VINA RESULT:      -9.9      4.755     13.311
REMARK  13 active torsions:
REMARK  status: ('A' for Active; 'I' for Inactive)
REMARK    1  A    between atoms: C13_3  and  N_18 
REMARK    2  A    between atoms: C13_3  and  C4_37 
REMARK    3  A    between atoms: C20_9  and  O6_59 
REMARK    4  A    between atoms: C21_25  and  C24_12 
REMARK       I    between atoms: C24_12  and  N2_49 
REMARK    5  A    between atoms: C25_13  and  S_60 
REMARK    6  A    between atoms: C28_15  and  N3_50 
REMARK    7  A    between atoms: C31_17  and  C32_29 
REMARK    8  A    between atoms: C31_17  and  N3_50 
REMARK    9  A    between atoms: C18_23  and  N1_48 
REMARK   10  A    between atoms: C27_26  and  N4_51 
REMARK   11  A    between atoms: C37_34  and  O6_59 
REMARK   12  A    between atoms: C5_43  and  C7_45 
REMARK   13  A    between atoms: N2_49  and  S_60 
ROOT
HETATM    1  C19 LBM A   1     -16.998   3.406 -11.666  1.00  0.00     0.067 A 
HETATM    2  C20 LBM A   1     -16.755   4.373 -12.611  1.00  0.00     0.094 A 
HETATM    3  C22 LBM A   1     -16.439   5.998 -10.901  1.00  0.00     0.022 A 
HETATM    4  C23 LBM A   1     -16.667   5.026  -9.945  1.00  0.00     0.030 A 
HETATM    5  C18 LBM A   1     -16.943   3.702 -10.318  1.00  0.00     0.033 A 
HETATM    6  C21 LBM A   1     -16.463   5.693 -12.269  1.00  0.00     0.067 A 
ENDROOT
BRANCH   6   7
HETATM    7  C24 LBM A   1     -16.207   6.777 -13.274  1.00  0.00     0.268 C 
HETATM    8  O   LBM A   1     -15.205   7.501 -13.231  1.00  0.00    -0.267 OA
HETATM    9  N2  LBM A   1     -17.134   6.921 -14.287  1.00  0.00    -0.246 N 
HETATM   10  HN2 LBM A   1     -18.026   6.453 -14.213  1.00  0.00     0.182 HD
BRANCH   9  11
HETATM   11  S   LBM A   1     -16.820   7.819 -15.580  1.00  0.00     0.265 S 
HETATM   12  O1  LBM A   1     -16.009   8.959 -15.205  1.00  0.00    -0.200 OA
HETATM   13  O2  LBM A   1     -18.081   8.056 -16.210  1.00  0.00    -0.200 OA
BRANCH  11  14
HETATM   14  C25 LBM A   1     -15.841   6.756 -16.631  1.00  0.00     0.082 A 
HETATM   15  C26 LBM A   1     -14.489   7.058 -16.795  1.00  0.00     0.063 A 
HETATM   16  C27 LBM A   1     -13.724   6.274 -17.638  1.00  0.00     0.130 A 
HETATM   17  C28 LBM A   1     -14.251   5.159 -18.345  1.00  0.00     0.061 A 
HETATM   18  C29 LBM A   1     -15.625   4.910 -18.162  1.00  0.00     0.033 A 
HETATM   19  C30 LBM A   1     -16.406   5.685 -17.298  1.00  0.00     0.028 A 
BRANCH  16  20
HETATM   20  N4  LBM A   1     -12.339   6.702 -17.796  1.00  0.00    -0.113 N 
HETATM   21  O4  LBM A   1     -11.447   6.034 -17.308  1.00  0.00    -0.532 OA
HETATM   22  O5  LBM A   1     -12.131   7.751 -18.399  1.00  0.00    -0.532 OA
ENDBRANCH  16  20
BRANCH  17  23
HETATM   23  N3  LBM A   1     -13.443   4.365 -19.140  1.00  0.00    -0.388 N 
HETATM   24  HN3 LBM A   1     -13.124   3.487 -18.756  1.00  0.00     0.159 HD
BRANCH  23  25
HETATM   25  C31 LBM A   1     -13.022   4.706 -20.493  1.00  0.00     0.124 C 
BRANCH  25  26
HETATM   26  C32 LBM A   1     -13.576   3.691 -21.482  1.00  0.00     0.007 C 
HETATM   27  C33 LBM A   1     -13.824   2.344 -20.813  1.00  0.00     0.032 C 
HETATM   28  C34 LBM A   1     -14.407   1.372 -21.816  1.00  0.00     0.168 C 
HETATM   29  O3  LBM A   1     -15.630   1.860 -22.356  1.00  0.00    -0.391 OA
HETATM   30  C35 LBM A   1     -15.394   3.082 -23.061  1.00  0.00     0.168 C 
HETATM   31  C36 LBM A   1     -14.867   4.148 -22.131  1.00  0.00     0.032 C 
ENDBRANCH  25  26
ENDBRANCH  23  25
ENDBRANCH  17  23
ENDBRANCH  11  14
ENDBRANCH   9  11
ENDBRANCH   6   7
BRANCH   2  32
HETATM   32  O6  LBM A   1     -16.845   4.045 -13.952  1.00  0.00    -0.308 OA
BRANCH  32  33
HETATM   33  C37 LBM A   1     -15.808   3.404 -14.598  1.00  0.00     0.094 A 
HETATM   34  C38 LBM A   1     -16.029   2.193 -15.223  1.00  0.00     0.156 A 
HETATM   35  N5  LBM A   1     -15.088   1.528 -15.907  1.00  0.00    -0.240 NA
HETATM   36  C39 LBM A   1     -13.846   2.078 -15.898  1.00  0.00     0.137 A 
HETATM   37  C40 LBM A   1     -13.520   3.292 -15.257  1.00  0.00     0.014 A 
HETATM   38  N6  LBM A   1     -12.746   1.619 -16.562  1.00  0.00    -0.350 N 
HETATM   39  C41 LBM A   1     -14.538   3.987 -14.612  1.00  0.00     0.054 A 
HETATM   40  C42 LBM A   1     -12.116   3.544 -15.565  1.00  0.00     0.032 A 
HETATM   41  C43 LBM A   1     -11.705   2.515 -16.354  1.00  0.00     0.090 A 
HETATM   42  HN6 LBM A   1     -12.697   0.773 -17.110  1.00  0.00     0.166 HD
ENDBRANCH  32  33
ENDBRANCH   2  32
BRANCH   5  43
HETATM   43  N1  LBM A   1     -17.205   2.725  -9.375  1.00  0.00    -0.377 N 
HETATM   44  C15 LBM A   1     -18.560   2.453  -8.873  1.00  0.00     0.153 C 
HETATM   45  C14 LBM A   1     -18.632   1.050  -8.259  1.00  0.00     0.292 C 
HETATM   46  N   LBM A   1     -17.626   0.865  -7.188  1.00  0.00     0.095 N 
HETATM   47  C17 LBM A   1     -16.286   1.114  -7.769  1.00  0.00     0.292 C 
HETATM   48  C16 LBM A   1     -16.203   2.523  -8.326  1.00  0.00     0.153 C 
BRANCH  46  49
HETATM   49  C13 LBM A   1     -17.691  -0.494  -6.618  1.00  0.00     0.307 C 
BRANCH  49  50
HETATM   50  C4  LBM A   1     -18.541  -0.620  -5.382  1.00  0.00    -0.045 C 
HETATM   51  C3  LBM A   1     -19.945  -1.143  -5.557  1.00  0.00     0.037 C 
HETATM   52  C2  LBM A   1     -20.791  -0.731  -4.363  1.00  0.00     0.013 C 
HETATM   53  C1  LBM A   1     -20.126  -1.110  -3.035  1.00  0.00    -0.043 C 
HETATM   54  C   LBM A   1     -21.058  -0.779  -1.871  1.00  0.00     0.015 C 
HETATM   55  C44 LBM A   1     -19.804  -2.601  -3.017  1.00  0.00     0.015 C 
HETATM   56  C6  LBM A   1     -18.832  -0.304  -2.899  1.00  0.00     0.048 C 
HETATM   57  C5  LBM A   1     -18.066  -0.160  -4.178  1.00  0.00    -0.043 C 
BRANCH  57  58
HETATM   58  C7  LBM A   1     -16.784   0.558  -4.025  1.00  0.00    -0.029 A 
HETATM   59  C12 LBM A   1     -16.737   1.945  -4.159  1.00  0.00     0.013 A 
HETATM   60  C11 LBM A   1     -15.558   2.622  -3.946  1.00  0.00     0.024 A 
HETATM   61  C10 LBM A   1     -14.397   1.923  -3.641  1.00  0.00     0.034 A 
HETATM   62  C9  LBM A   1     -14.425   0.541  -3.543  1.00  0.00     0.024 A 
HETATM   63 CL   LBM A   1     -12.904   2.774  -3.447  1.00  0.00    -0.084 Cl
HETATM   64  C8  LBM A   1     -15.610  -0.132  -3.730  1.00  0.00     0.013 A 
ENDBRANCH  57  58
ENDBRANCH  49  50
ENDBRANCH  46  49
ENDBRANCH   5  43
TORSDOF 13
ENDMDL
MODEL 8
REMARK VINA RESULT:      -9.8      1.501      2.404
REMARK  13 active torsions:
REMARK  status: ('A' for Active; 'I' for Inactive)
REMARK    1  A    between atoms: C13_3  and  N_18 
REMARK    2  A    between atoms: C13_3  and  C4_37 
REMARK    3  A    between atoms: C20_9  and  O6_59 
REMARK    4  A    between atoms: C21_25  and  C24_12 
REMARK       I    between atoms: C24_12  and  N2_49 
REMARK    5  A    between atoms: C25_13  and  S_60 
REMARK    6  A    between atoms: C28_15  and  N3_50 
REMARK    7  A    between atoms: C31_17  and  C32_29 
REMARK    8  A    between atoms: C31_17  and  N3_50 
REMARK    9  A    between atoms: C18_23  and  N1_48 
REMARK   10  A    between atoms: C27_26  and  N4_51 
REMARK   11  A    between atoms: C37_34  and  O6_59 
REMARK   12  A    between atoms: C5_43  and  C7_45 
REMARK   13  A    between atoms: N2_49  and  S_60 
ROOT
HETATM    1  C19 LBM A   1     -16.224   3.851 -10.388  1.00  0.00     0.067 A 
HETATM    2  C20 LBM A   1     -16.628   4.146  -9.109  1.00  0.00     0.094 A 
HETATM    3  C22 LBM A   1     -18.161   5.766  -9.943  1.00  0.00     0.022 A 
HETATM    4  C23 LBM A   1     -17.768   5.462 -11.233  1.00  0.00     0.030 A 
HETATM    5  C18 LBM A   1     -16.792   4.485 -11.476  1.00  0.00     0.033 A 
HETATM    6  C21 LBM A   1     -17.608   5.101  -8.839  1.00  0.00     0.067 A 
ENDROOT
BRANCH   6   7
HETATM    7  C24 LBM A   1     -18.065   5.459  -7.455  1.00  0.00     0.268 C 
HETATM    8  O   LBM A   1     -19.251   5.401  -7.110  1.00  0.00    -0.267 OA
HETATM    9  N2  LBM A   1     -17.088   5.832  -6.553  1.00  0.00    -0.246 N 
HETATM   10  HN2 LBM A   1     -16.160   6.046  -6.887  1.00  0.00     0.182 HD
BRANCH   9  11
HETATM   11  S   LBM A   1     -17.403   5.933  -4.982  1.00  0.00     0.265 S 
HETATM   12  O1  LBM A   1     -18.695   6.553  -4.776  1.00  0.00    -0.200 OA
HETATM   13  O2  LBM A   1     -16.252   6.539  -4.389  1.00  0.00    -0.200 OA
BRANCH  11  14
HETATM   14  C25 LBM A   1     -17.503   4.234  -4.440  1.00  0.00     0.082 A 
HETATM   15  C26 LBM A   1     -18.750   3.736  -4.061  1.00  0.00     0.063 A 
HETATM   16  C27 LBM A   1     -18.842   2.437  -3.598  1.00  0.00     0.130 A 
HETATM   17  C28 LBM A   1     -17.719   1.572  -3.496  1.00  0.00     0.061 A 
HETATM   18  C29 LBM A   1     -16.480   2.129  -3.870  1.00  0.00     0.033 A 
HETATM   19  C30 LBM A   1     -16.377   3.436  -4.358  1.00  0.00     0.028 A 
BRANCH  16  20
HETATM   20  N4  LBM A   1     -20.173   2.026  -3.167  1.00  0.00    -0.113 N 
HETATM   21  O4  LBM A   1     -20.779   2.706  -2.362  1.00  0.00    -0.532 OA
HETATM   22  O5  LBM A   1     -20.621   0.975  -3.620  1.00  0.00    -0.532 OA
ENDBRANCH  16  20
BRANCH  17  23
HETATM   23  N3  LBM A   1     -17.857   0.261  -3.077  1.00  0.00    -0.388 N 
HETATM   24  HN3 LBM A   1     -18.547  -0.311  -3.544  1.00  0.00     0.159 HD
BRANCH  23  25
HETATM   25  C31 LBM A   1     -17.077  -0.353  -2.010  1.00  0.00     0.124 C 
BRANCH  25  26
HETATM   26  C32 LBM A   1     -16.490  -1.673  -2.488  1.00  0.00     0.007 C 
HETATM   27  C33 LBM A   1     -15.007  -1.774  -2.152  1.00  0.00     0.032 C 
HETATM   28  C34 LBM A   1     -14.465  -3.111  -2.608  1.00  0.00     0.168 C 
HETATM   29  O3  LBM A   1     -15.161  -4.188  -1.989  1.00  0.00    -0.391 OA
HETATM   30  C35 LBM A   1     -16.540  -4.154  -2.369  1.00  0.00     0.168 C 
HETATM   31  C36 LBM A   1     -17.197  -2.877  -1.900  1.00  0.00     0.032 C 
ENDBRANCH  25  26
ENDBRANCH  23  25
ENDBRANCH  17  23
ENDBRANCH  11  14
ENDBRANCH   9  11
ENDBRANCH   6   7
BRANCH   2  32
HETATM   32  O6  LBM A   1     -16.018   3.510  -8.044  1.00  0.00    -0.308 OA
BRANCH  32  33
HETATM   33  C37 LBM A   1     -16.462   2.281  -7.600  1.00  0.00     0.094 A 
HETATM   34  C38 LBM A   1     -15.555   1.274  -7.339  1.00  0.00     0.156 A 
HETATM   35  N5  LBM A   1     -15.899   0.069  -6.866  1.00  0.00    -0.240 NA
HETATM   36  C39 LBM A   1     -17.231  -0.153  -6.718  1.00  0.00     0.137 A 
HETATM   37  C40 LBM A   1     -18.231   0.803  -6.992  1.00  0.00     0.014 A 
HETATM   38  N6  LBM A   1     -17.819  -1.273  -6.206  1.00  0.00    -0.350 N 
HETATM   39  C41 LBM A   1     -17.831   2.065  -7.420  1.00  0.00     0.054 A 
HETATM   40  C42 LBM A   1     -19.497   0.178  -6.624  1.00  0.00     0.032 A 
HETATM   41  C43 LBM A   1     -19.191  -1.061  -6.152  1.00  0.00     0.090 A 
HETATM   42  HN6 LBM A   1     -17.339  -2.112  -5.916  1.00  0.00     0.166 HD
ENDBRANCH  32  33
ENDBRANCH   2  32
BRANCH   5  43
HETATM   43  N1  LBM A   1     -16.365   4.192 -12.759  1.00  0.00    -0.377 N 
HETATM   44  C15 LBM A   1     -15.812   5.213 -13.661  1.00  0.00     0.153 C 
HETATM   45  C14 LBM A   1     -14.983   4.555 -14.770  1.00  0.00     0.292 C 
HETATM   46  N   LBM A   1     -15.770   3.554 -15.526  1.00  0.00     0.095 N 
HETATM   47  C17 LBM A   1     -16.261   2.536 -14.567  1.00  0.00     0.292 C 
HETATM   48  C16 LBM A   1     -17.127   3.186 -13.503  1.00  0.00     0.153 C 
BRANCH  46  49
HETATM   49  C13 LBM A   1     -14.957   2.913 -16.577  1.00  0.00     0.307 C 
BRANCH  49  50
HETATM   50  C4  LBM A   1     -14.202   3.869 -17.461  1.00  0.00    -0.045 C 
HETATM   51  C3  LBM A   1     -15.001   4.934 -18.170  1.00  0.00     0.037 C 
HETATM   52  C2  LBM A   1     -14.211   5.449 -19.364  1.00  0.00     0.013 C 
HETATM   53  C1  LBM A   1     -12.791   5.868 -18.969  1.00  0.00    -0.043 C 
HETATM   54  C   LBM A   1     -12.074   6.480 -20.171  1.00  0.00     0.015 C 
HETATM   55  C44 LBM A   1     -12.842   6.890 -17.837  1.00  0.00     0.015 C 
HETATM   56  C6  LBM A   1     -12.035   4.622 -18.502  1.00  0.00     0.048 C 
HETATM   57  C5  LBM A   1     -12.859   3.680 -17.682  1.00  0.00    -0.043 C 
BRANCH  57  58
HETATM   58  C7  LBM A   1     -12.104   2.515 -17.176  1.00  0.00    -0.029 A 
HETATM   59  C12 LBM A   1     -11.356   2.620 -16.004  1.00  0.00     0.013 A 
HETATM   60  C11 LBM A   1     -10.711   1.517 -15.493  1.00  0.00     0.024 A 
HETATM   61  C10 LBM A   1     -10.762   0.304 -16.167  1.00  0.00     0.034 A 
HETATM   62  C9  LBM A   1     -11.471   0.199 -17.354  1.00  0.00     0.024 A 
HETATM   63 CL   LBM A   1      -9.888  -1.059 -15.558  1.00  0.00    -0.084 Cl
HETATM   64  C8  LBM A   1     -12.137   1.295 -17.848  1.00  0.00     0.013 A 
ENDBRANCH  57  58
ENDBRANCH  49  50
ENDBRANCH  46  49
ENDBRANCH   5  43
TORSDOF 13
ENDMDL
MODEL 9
REMARK VINA RESULT:      -9.6      6.342     14.134
REMARK  13 active torsions:
REMARK  status: ('A' for Active; 'I' for Inactive)
REMARK    1  A    between atoms: C13_3  and  N_18 
REMARK    2  A    between atoms: C13_3  and  C4_37 
REMARK    3  A    between atoms: C20_9  and  O6_59 
REMARK    4  A    between atoms: C21_25  and  C24_12 
REMARK       I    between atoms: C24_12  and  N2_49 
REMARK    5  A    between atoms: C25_13  and  S_60 
REMARK    6  A    between atoms: C28_15  and  N3_50 
REMARK    7  A    between atoms: C31_17  and  C32_29 
REMARK    8  A    between atoms: C31_17  and  N3_50 
REMARK    9  A    between atoms: C18_23  and  N1_48 
REMARK   10  A    between atoms: C27_26  and  N4_51 
REMARK   11  A    between atoms: C37_34  and  O6_59 
REMARK   12  A    between atoms: C5_43  and  C7_45 
REMARK   13  A    between atoms: N2_49  and  S_60 
ROOT
HETATM    1  C19 LBM A   1     -15.307   4.326 -14.278  1.00  0.00     0.067 A 
HETATM    2  C20 LBM A   1     -14.934   4.826 -15.502  1.00  0.00     0.094 A 
HETATM    3  C22 LBM A   1     -15.588   7.015 -14.832  1.00  0.00     0.022 A 
HETATM    4  C23 LBM A   1     -15.950   6.520 -13.594  1.00  0.00     0.030 A 
HETATM    5  C18 LBM A   1     -15.805   5.157 -13.294  1.00  0.00     0.033 A 
HETATM    6  C21 LBM A   1     -15.053   6.178 -15.822  1.00  0.00     0.067 A 
ENDROOT
BRANCH   6   7
HETATM    7  C24 LBM A   1     -14.669   6.756 -17.152  1.00  0.00     0.268 C 
HETATM    8  O   LBM A   1     -13.992   7.785 -17.260  1.00  0.00    -0.267 OA
HETATM    9  N2  LBM A   1     -15.082   6.067 -18.275  1.00  0.00    -0.246 N 
HETATM   10  HN2 LBM A   1     -15.776   5.339 -18.183  1.00  0.00     0.182 HD
BRANCH   9  11
HETATM   11  S   LBM A   1     -14.480   6.402 -19.725  1.00  0.00     0.265 S 
HETATM   12  O1  LBM A   1     -13.033   6.437 -19.663  1.00  0.00    -0.200 OA
HETATM   13  O2  LBM A   1     -15.172   7.568 -20.178  1.00  0.00    -0.200 OA
BRANCH  11  14
HETATM   14  C25 LBM A   1     -14.964   5.014 -20.738  1.00  0.00     0.082 A 
HETATM   15  C26 LBM A   1     -13.961   4.187 -21.245  1.00  0.00     0.063 A 
HETATM   16  C27 LBM A   1     -14.311   3.132 -22.066  1.00  0.00     0.130 A 
HETATM   17  C28 LBM A   1     -15.657   2.840 -22.417  1.00  0.00     0.061 A 
HETATM   18  C29 LBM A   1     -16.630   3.717 -21.898  1.00  0.00     0.033 A 
HETATM   19  C30 LBM A   1     -16.290   4.777 -21.051  1.00  0.00     0.028 A 
BRANCH  16  20
HETATM   20  N4  LBM A   1     -13.193   2.361 -22.598  1.00  0.00    -0.113 N 
HETATM   21  O4  LBM A   1     -12.405   2.894 -23.356  1.00  0.00    -0.532 OA
HETATM   22  O5  LBM A   1     -13.110   1.179 -22.275  1.00  0.00    -0.532 OA
ENDBRANCH  16  20
BRANCH  17  23
HETATM   23  N3  LBM A   1     -15.975   1.746 -23.200  1.00  0.00    -0.388 N 
HETATM   24  HN3 LBM A   1     -15.398   0.922 -23.112  1.00  0.00     0.159 HD
BRANCH  23  25
HETATM   25  C31 LBM A   1     -17.086   1.697 -24.143  1.00  0.00     0.124 C 
BRANCH  25  26
HETATM   26  C32 LBM A   1     -17.995   0.520 -23.817  1.00  0.00     0.007 C 
HETATM   27  C33 LBM A   1     -18.219  -0.361 -25.040  1.00  0.00     0.032 C 
HETATM   28  C34 LBM A   1     -19.096  -1.539 -24.671  1.00  0.00     0.168 C 
HETATM   29  O3  LBM A   1     -18.507  -2.315 -23.634  1.00  0.00    -0.391 OA
HETATM   30  C35 LBM A   1     -18.372  -1.521 -22.452  1.00  0.00     0.168 C 
HETATM   31  C36 LBM A   1     -17.456  -0.345 -22.696  1.00  0.00     0.032 C 
ENDBRANCH  25  26
ENDBRANCH  23  25
ENDBRANCH  17  23
ENDBRANCH  11  14
ENDBRANCH   9  11
ENDBRANCH   6   7
BRANCH   2  32
HETATM   32  O6  LBM A   1     -14.465   3.959 -16.472  1.00  0.00    -0.308 OA
BRANCH  32  33
HETATM   33  C37 LBM A   1     -13.325   3.209 -16.263  1.00  0.00     0.094 A 
HETATM   34  C38 LBM A   1     -12.203   3.799 -15.716  1.00  0.00     0.156 A 
HETATM   35  N5  LBM A   1     -11.073   3.133 -15.442  1.00  0.00    -0.240 NA
HETATM   36  C39 LBM A   1     -11.051   1.825 -15.807  1.00  0.00     0.137 A 
HETATM   37  C40 LBM A   1     -12.136   1.148 -16.402  1.00  0.00     0.014 A 
HETATM   38  N6  LBM A   1     -10.042   0.933 -15.585  1.00  0.00    -0.350 N 
HETATM   39  C41 LBM A   1     -13.315   1.856 -16.611  1.00  0.00     0.054 A 
HETATM   40  C42 LBM A   1     -11.711  -0.240 -16.550  1.00  0.00     0.032 A 
HETATM   41  C43 LBM A   1     -10.453  -0.314 -16.038  1.00  0.00     0.090 A 
HETATM   42  HN6 LBM A   1      -9.150   1.144 -15.164  1.00  0.00     0.166 HD
ENDBRANCH  32  33
ENDBRANCH   2  32
BRANCH   5  43
HETATM   43  N1  LBM A   1     -16.193   4.640 -12.070  1.00  0.00    -0.377 N 
HETATM   44  C15 LBM A   1     -16.935   3.377 -11.945  1.00  0.00     0.153 C 
HETATM   45  C14 LBM A   1     -16.789   2.809 -10.528  1.00  0.00     0.292 C 
HETATM   46  N   LBM A   1     -17.222   3.781  -9.498  1.00  0.00     0.095 N 
HETATM   47  C17 LBM A   1     -16.410   5.010  -9.655  1.00  0.00     0.292 C 
HETATM   48  C16 LBM A   1     -16.602   5.598 -11.041  1.00  0.00     0.153 C 
BRANCH  46  49
HETATM   49  C13 LBM A   1     -17.058   3.231  -8.138  1.00  0.00     0.307 C 
BRANCH  49  50
HETATM   50  C4  LBM A   1     -18.246   2.464  -7.621  1.00  0.00    -0.045 C 
HETATM   51  C3  LBM A   1     -19.570   2.695  -8.303  1.00  0.00     0.037 C 
HETATM   52  C2  LBM A   1     -20.699   2.274  -7.374  1.00  0.00     0.013 C 
HETATM   53  C1  LBM A   1     -20.493   0.854  -6.837  1.00  0.00    -0.043 C 
HETATM   54  C   LBM A   1     -21.700   0.432  -6.001  1.00  0.00     0.015 C 
HETATM   55  C44 LBM A   1     -20.314  -0.124  -7.994  1.00  0.00     0.015 C 
HETATM   56  C6  LBM A   1     -19.238   0.849  -5.961  1.00  0.00     0.048 C 
HETATM   57  C5  LBM A   1     -18.117   1.682  -6.498  1.00  0.00    -0.043 C 
BRANCH  57  58
HETATM   58  C7  LBM A   1     -16.885   1.616  -5.685  1.00  0.00    -0.029 A 
HETATM   59  C12 LBM A   1     -15.884   0.699  -6.003  1.00  0.00     0.013 A 
HETATM   60  C11 LBM A   1     -14.706   0.686  -5.291  1.00  0.00     0.024 A 
HETATM   61  C10 LBM A   1     -14.526   1.553  -4.222  1.00  0.00     0.034 A 
HETATM   62  C9  LBM A   1     -15.531   2.442  -3.873  1.00  0.00     0.024 A 
HETATM   63 CL   LBM A   1     -13.073   1.481  -3.287  1.00  0.00    -0.084 Cl
HETATM   64  C8  LBM A   1     -16.696   2.473  -4.603  1.00  0.00     0.013 A 
ENDBRANCH  57  58
ENDBRANCH  49  50
ENDBRANCH  46  49
ENDBRANCH   5  43
TORSDOF 13
ENDMDL
