REMARK  Name = min_compound913.pdb
REMARK  6 active torsions:
REMARK  status: ('A' for Active; 'I' for Inactive)
REMARK    1  A    between atoms: _1  and  _2
REMARK    2  A    between atoms: _1  and  _15
REMARK    3  A    between atoms: _7  and  _8
REMARK    4  A    between atoms: _13  and  _16
REMARK    5  A    between atoms: _13  and  _17
REMARK    6  A    between atoms: _17  and  _18
REMARK                            x       y       z     vdW  Elec       q    Type
REMARK                         _______ _______ _______ _____ _____    ______ ____
ROOT
ATOM      1  N   UNL     1       4.367   4.369  -1.141  0.00  0.00    -0.226 NA
ATOM      2  C   UNL     1       5.171   5.276  -0.713  0.00  0.00    +0.155 C 
ATOM      3  S   UNL     1       6.748   5.416  -1.494  0.00  0.00    -0.088 S 
ATOM      4  C   UNL     1       7.222   6.848  -0.470  0.00  0.00    +0.104 C 
ATOM      5  C   UNL     1       5.901   7.404   0.088  0.00  0.00    +0.063 C 
ATOM      6  C   UNL     1       6.119   8.051   1.458  0.00  0.00    +0.035 C 
ATOM      7  N   UNL     1       5.022   6.243   0.244  0.00  0.00    -0.315 N 
ATOM      8  H   UNL     1       4.063   6.467   0.495  0.00  0.00    +0.149 HD
ENDROOT
BRANCH   1  12
ATOM      9  C   UNL     1       0.495   3.942   0.462  0.00  0.00    +0.120 A 
ATOM     10  C   UNL     1       1.490   2.999   0.733  0.00  0.00    +0.048 A 
ATOM     11  C   UNL     1       2.777   3.154   0.211  0.00  0.00    +0.031 A 
ATOM     12  C   UNL     1       3.091   4.259  -0.578  0.00  0.00    +0.067 A 
ATOM     13  C   UNL     1       2.092   5.198  -0.854  0.00  0.00    +0.031 A 
ATOM     14  C   UNL     1       0.803   5.049  -0.328  0.00  0.00    +0.048 A 
BRANCH   9  15
ATOM     15  O   UNL     1      -0.723   3.667   1.020  0.00  0.00    -0.495 OA
ATOM     16  C   UNL     1      -1.807   4.501   0.632  0.00  0.00    +0.277 C 
ENDBRANCH   9  15
ENDBRANCH   1  12
BRANCH   5  17
ATOM     17  C   UNL     1       5.250   8.412  -0.895  0.00  0.00    +0.182 C 
BRANCH  17  18
ATOM     18  O   UNL     1       3.977   8.838  -0.403  0.00  0.00    -0.393 OA
ATOM     19  H   UNL     1       3.601   9.438  -1.071  0.00  0.00    +0.209 HD
ENDBRANCH  17  18
ENDBRANCH   5  17
TORSDOF 4
