REMARK  Name = min_compound6.pdb
REMARK  1 active torsions:
REMARK  status: ('A' for Active; 'I' for Inactive)
REMARK    1  A    between atoms: _1  and  _8
REMARK                            x       y       z     vdW  Elec       q    Type
REMARK                         _______ _______ _______ _____ _____    ______ ____
ROOT
ATOM      1  C   UNL     1       5.225   1.298   0.000  0.00  0.00    +0.208 C 
ATOM      2  S   UNL     1       5.078  -0.424   0.000  0.00  0.00    -0.048 S 
ATOM      3  S   UNL     1       3.032  -0.427   0.000  0.00  0.00    -0.031 S 
ATOM      4  C   UNL     1       2.848   1.316   0.000  0.00  0.00    +0.119 C 
ATOM      5  S   UNL     1       1.397   2.124   0.000  0.00  0.00    -0.027 S 
ATOM      6  N   UNL     1       4.049   1.969   0.000  0.00  0.00    -0.308 N 
ATOM      7  H   UNL     1       4.080   2.978   0.000  0.00  0.00    +0.149 HD
ENDROOT
BRANCH   1   8
ATOM      8  N   UNL     1       6.342   1.925   0.000  0.00  0.00    -0.304 NA
ATOM      9  H   UNL     1       6.411   2.510   0.833  0.00  0.00    +0.121 HD
ATOM     10  H   UNL     1       7.096   1.227   0.000  0.00  0.00    +0.121 HD
ENDBRANCH   1   8
TORSDOF 1
