REMARK  Name = min_compound916.pdb
REMARK  6 active torsions:
REMARK  status: ('A' for Active; 'I' for Inactive)
REMARK    1  A    between atoms: _6  and  _7
REMARK    2  A    between atoms: _7  and  _15
REMARK    3  A    between atoms: _8  and  _9
REMARK    4  A    between atoms: _8  and  _18
REMARK    5  A    between atoms: _15  and  _16
REMARK    6  A    between atoms: _17  and  _18
REMARK                            x       y       z     vdW  Elec       q    Type
REMARK                         _______ _______ _______ _____ _____    ______ ____
ROOT
ATOM      1  C   UNL     1       1.407  -7.036   0.445  0.00  0.00    -0.019 C 
ATOM      2  C   UNL     1       1.702  -5.786   0.049  0.00  0.00    -0.019 C 
ENDROOT
BRANCH   1   3
ATOM      3  C   UNL     1       2.299  -8.228   0.274  0.00  0.00    +0.102 C 
BRANCH   3   4
ATOM      4  S   UNL     1       1.537  -9.371  -0.912  0.00  0.00    -0.102 S 
BRANCH   4   8
ATOM      5  C   UNL     1       3.707 -13.179   0.178  0.00  0.00    +0.020 A 
ATOM      6  C   UNL     1       2.343 -13.003   0.327  0.00  0.00    +0.112 A 
ATOM      7  N   UNL     1       1.694 -11.863   0.010  0.00  0.00    -0.249 NA
ATOM      8  C   UNL     1       2.431 -10.847  -0.491  0.00  0.00    +0.097 A 
ATOM      9  C   UNL     1       3.805 -10.939  -0.680  0.00  0.00    +0.035 A 
ATOM     10  C   UNL     1       4.451 -12.123  -0.334  0.00  0.00    +0.004 A 
ENDBRANCH   4   8
ENDBRANCH   3   4
ENDBRANCH   1   3
BRANCH   2  11
ATOM     11  C   UNL     1       0.786  -4.618   0.264  0.00  0.00    +0.102 C 
BRANCH  11  12
ATOM     12  S   UNL     1       0.296  -3.921  -1.335  0.00  0.00    -0.102 S 
BRANCH  12  13
ATOM     13  C   UNL     1      -0.895  -2.752  -0.722  0.00  0.00    +0.097 A 
ATOM     14  N   UNL     1      -2.054  -3.252  -0.236  0.00  0.00    -0.249 NA
ATOM     15  C   UNL     1      -2.960  -2.366   0.229  0.00  0.00    +0.112 A 
ATOM     16  C   UNL     1      -2.757  -0.997   0.251  0.00  0.00    +0.020 A 
ATOM     17  C   UNL     1      -1.557  -0.504  -0.246  0.00  0.00    +0.004 A 
ATOM     18  C   UNL     1      -0.611  -1.393  -0.749  0.00  0.00    +0.035 A 
ENDBRANCH  12  13
ENDBRANCH  11  12
ENDBRANCH   2  11
TORSDOF 6
