REMARK  Name = min_compound4.pdb
REMARK  5 active torsions:
REMARK  status: ('A' for Active; 'I' for Inactive)
REMARK    1  A    between atoms: _3  and  _7
REMARK    2  A    between atoms: _7  and  _8
REMARK    3  A    between atoms: _8  and  _9
REMARK    4  A    between atoms: _9  and  _10
REMARK    5  A    between atoms: _10  and  _11
REMARK                            x       y       z     vdW  Elec       q    Type
REMARK                         _______ _______ _______ _____ _____    ______ ____
ROOT
ATOM      1  N   UNL     1       1.118   3.064   0.036  0.00  0.00    -0.263 NA
ATOM      2  C   UNL     1       1.070   1.717   0.048  0.00  0.00    +0.111 A 
ATOM      3  C   UNL     1       2.194   0.910   0.015  0.00  0.00    +0.020 A 
ATOM      4  C   UNL     1       3.447   1.517  -0.032  0.00  0.00    +0.006 A 
ATOM      5  C   UNL     1       3.547   2.911  -0.041  0.00  0.00    -0.029 A 
ATOM      6  C   UNL     1       2.349   3.624  -0.009  0.00  0.00    +0.114 A 
ENDROOT
BRANCH   5   7
ATOM      7  C   UNL     1       4.846   3.675  -0.102  0.00  0.00    +0.036 C 
BRANCH   7   8
ATOM      8  C   UNL     1       6.134   2.851   0.007  0.00  0.00    +0.005 C 
BRANCH   8   9
ATOM      9  C   UNL     1       7.372   3.750  -0.028  0.00  0.00    +0.000 C 
BRANCH   9  10
ATOM     10  C   UNL     1       8.658   2.930   0.080  0.00  0.00    -0.003 C 
ATOM     11  C   UNL     1       9.891   3.819   0.043  0.00  0.00    +0.004 C 
ENDBRANCH   9  10
ENDBRANCH   8   9
ENDBRANCH   7   8
ENDBRANCH   5   7
TORSDOF 4
