REMARK  Name = min_compound987.pdb
REMARK  4 active torsions:
REMARK  status: ('A' for Active; 'I' for Inactive)
REMARK    1  A    between atoms: _6  and  _21
REMARK    2  A    between atoms: _7  and  _20
REMARK    3  A    between atoms: _14  and  _15
REMARK    4  A    between atoms: _18  and  _19
REMARK                            x       y       z     vdW  Elec       q    Type
REMARK                         _______ _______ _______ _____ _____    ______ ____
ROOT
ATOM      1  C   UNL     1       1.717   3.300  -0.177  0.00  0.00    +0.005 A 
ATOM      2  C   UNL     1       1.697   4.695  -0.108  0.00  0.00    -0.050 A 
ATOM      3  C   UNL     1       0.399   5.441  -0.181  0.00  0.00    +0.044 C 
ATOM      4  C   UNL     1       2.909   5.399  -0.031  0.00  0.00    +0.014 A 
ATOM      5  C   UNL     1       4.138   4.701  -0.002  0.00  0.00    +0.008 A 
ATOM      6  C   UNL     1       5.508   5.106   0.077  0.00  0.00    +0.008 A 
ATOM      7  C   UNL     1       6.094   6.370   0.203  0.00  0.00    +0.011 A 
ATOM      8  C   UNL     1       7.480   6.478   0.255  0.00  0.00    +0.013 A 
ATOM      9  C   UNL     1       8.349   5.386   0.096  0.00  0.00    +0.029 A 
ATOM     10  C   UNL     1       9.762   5.640   0.144  0.00  0.00    +0.125 A 
ATOM     11  C   UNL     1      10.545   4.506  -0.099  0.00  0.00    +0.049 A 
ATOM     12  C   UNL     1      10.020   3.236  -0.400  0.00  0.00    +0.049 A 
ATOM     13  C   UNL     1       8.649   2.933  -0.459  0.00  0.00    +0.127 A 
ATOM     14  C   UNL     1       7.786   4.055  -0.130  0.00  0.00    +0.051 A 
ATOM     15  C   UNL     1       6.327   3.971  -0.021  0.00  0.00    +0.061 A 
ATOM     16  N   UNL     1       5.438   2.901   0.081  0.00  0.00    -0.342 N 
ATOM     17  C   UNL     1       5.773   1.557   0.502  0.00  0.00    +0.149 C 
ATOM     18  C   UNL     1       4.120   3.316  -0.044  0.00  0.00    +0.050 A 
ATOM     19  C   UNL     1       2.922   2.588  -0.135  0.00  0.00    +0.027 A 
ENDROOT
BRANCH  10  20
ATOM     20  O   UNL     1      10.322   6.777   0.380  0.00  0.00    -0.506 OA
ATOM     21  H   UNL     1       9.795   7.534   0.542  0.00  0.00    +0.292 HD
ENDBRANCH  10  20
BRANCH  13  22
ATOM     22  O   UNL     1       8.293   1.756  -0.831  0.00  0.00    -0.506 OA
ATOM     23  H   UNL     1       7.384   1.534  -0.877  0.00  0.00    +0.292 HD
ENDBRANCH  13  22
TORSDOF 2
