REMARK  Name = min_compound947.pdb
REMARK  1 active torsions:
REMARK  status: ('A' for Active; 'I' for Inactive)
REMARK    1  A    between atoms: _15  and  _16
REMARK                            x       y       z     vdW  Elec       q    Type
REMARK                         _______ _______ _______ _____ _____    ______ ____
ROOT
ATOM      1  C   UNL     1       1.144   6.688   0.000  0.00  0.00    +0.001 A 
ATOM      2  C   UNL     1       1.049   5.346   0.000  0.00  0.00    +0.008 A 
ATOM      3  C   UNL     1       2.258   4.515   0.000  0.00  0.00    -0.014 A 
ATOM      4  C   UNL     1       2.204   3.056   0.000  0.00  0.00    +0.009 A 
ATOM      5  C   UNL     1       3.338   2.339   0.000  0.00  0.00    +0.016 A 
ATOM      6  C   UNL     1       4.653   2.998   0.000  0.00  0.00    +0.065 A 
ATOM      7  C   UNL     1       5.789   2.250   0.000  0.00  0.00    +0.193 A 
ATOM      8  O   UNL     1       5.985   0.999   0.000  0.00  0.00    -0.287 OA
ATOM      9  C   UNL     1       7.066   2.978   0.000  0.00  0.00    +0.098 A 
ATOM     10  C   UNL     1       7.131   4.324   0.000  0.00  0.00    +0.141 A 
ATOM     11  O   UNL     1       5.963   5.086   0.000  0.00  0.00    -0.454 OA
ATOM     12  C   UNL     1       4.715   4.474   0.000  0.00  0.00    +0.147 A 
ATOM     13  C   UNL     1       3.577   5.210   0.000  0.00  0.00    +0.025 A 
ATOM     14  C   UNL     1       3.589   6.675   0.000  0.00  0.00    +0.012 A 
ATOM     15  C   UNL     1       2.432   7.362   0.000  0.00  0.00    +0.001 A 
ENDROOT
BRANCH  10  16
ATOM     16  C   UNL     1       8.355   5.159   0.000  0.00  0.00    +0.035 A 
ATOM     17  C   UNL     1       9.642   4.692   0.001  0.00  0.00    +0.122 A 
ATOM     18  N   UNL     1      10.845   5.363   0.001  0.00  0.00    -0.263 NA
ATOM     19  C   UNL     1      10.673   6.715   0.000  0.00  0.00    +0.111 A 
ATOM     20  C   UNL     1       9.522   7.418   0.000  0.00  0.00    +0.020 A 
ATOM     21  C   UNL     1       8.307   6.633   0.000  0.00  0.00    +0.014 A 
ENDBRANCH  10  16
TORSDOF 1
