REMARK  Name = min_compound924.pdb
REMARK  6 active torsions:
REMARK  status: ('A' for Active; 'I' for Inactive)
REMARK    1  A    between atoms: _6  and  _7
REMARK    2  A    between atoms: _13  and  _18
REMARK    3  A    between atoms: _14  and  _15
REMARK    4  A    between atoms: _15  and  _16
REMARK    5  A    between atoms: _15  and  _17
REMARK    6  A    between atoms: _18  and  _19
REMARK                            x       y       z     vdW  Elec       q    Type
REMARK                         _______ _______ _______ _____ _____    ______ ____
ROOT
ATOM      1  C   UNL     1       5.880   4.648  -0.594  0.00  0.00    +0.292 C 
ATOM      2  N   UNL     1       6.477   3.453  -0.500  0.00  0.00    -0.042 NA
ATOM      3  C   UNL     1       7.755   3.451  -0.161  0.00  0.00    +0.380 C 
ATOM      4  N   UNL     1       8.250   2.049   0.000  0.00  0.00    -0.236 N 
ATOM      5  H   UNL     1       7.768   1.558  -0.749  0.00  0.00    +0.245 HD
ATOM      6  N   UNL     1       8.437   4.649   0.029  0.00  0.00    -0.167 N 
ATOM      7  H   UNL     1       9.386   4.649   0.290  0.00  0.00    +0.255 HD
ATOM      8  C   UNL     1       7.754   5.846  -0.157  0.00  0.00    +0.305 C 
ATOM      9  N   UNL     1       8.250   7.245   0.000  0.00  0.00    -0.294 N 
ATOM     10  H   UNL     1       7.781   7.745  -0.750  0.00  0.00    +0.151 HD
ATOM     11  N   UNL     1       6.476   5.844  -0.494  0.00  0.00    -0.324 NA
ENDROOT
BRANCH   1  15
ATOM     12  N   UNL     1       1.581   4.646  -0.921  0.00  0.00    -0.263 NA
ATOM     13  C   UNL     1       2.292   3.502  -0.909  0.00  0.00    +0.111 A 
ATOM     14  C   UNL     1       3.675   3.453  -0.825  0.00  0.00    +0.034 A 
ATOM     15  C   UNL     1       4.407   4.649  -0.742  0.00  0.00    +0.052 A 
ATOM     16  C   UNL     1       3.669   5.843  -0.753  0.00  0.00    +0.034 A 
ATOM     17  C   UNL     1       2.286   5.792  -0.839  0.00  0.00    +0.111 A 
ENDBRANCH   1  15
BRANCH   4  18
ATOM     18  C   UNL     1       9.750   2.049   0.000  0.00  0.00    +0.130 C 
ATOM     19  C   UNL     1       9.887   0.525  -0.495  0.00  0.00    +0.045 C 
ATOM     20  C   UNL     1       9.892   2.059   1.606  0.00  0.00    +0.045 C 
ENDBRANCH   4  18
BRANCH   9  21
ATOM     21  C   UNL     1       9.750   7.245   0.000  0.00  0.00    +0.103 C 
ATOM     22  C   UNL     1       9.879   8.840  -0.065  0.00  0.00    +0.024 C 
ENDBRANCH   9  21
TORSDOF 3
