REMARK  Name = min_compound98.pdb
REMARK  3 active torsions:
REMARK  status: ('A' for Active; 'I' for Inactive)
REMARK    1  A    between atoms: _4  and  _10
REMARK    2  A    between atoms: _8  and  _11
REMARK    3  A    between atoms: _13  and  _14
REMARK                            x       y       z     vdW  Elec       q    Type
REMARK                         _______ _______ _______ _____ _____    ______ ____
ROOT
ATOM      1  O   UNL     1      -5.832  -7.267  -0.178  0.00  0.00    -0.245 OA
ATOM      2  C   UNL     1      -4.732  -6.722  -0.110  0.00  0.00    +0.345 A 
ATOM      3  N   UNL     1      -3.522  -7.399   0.000  0.00  0.00    -0.217 N 
ATOM      4  C   UNL     1      -3.522  -8.899   0.000  0.00  0.00    +0.178 C 
ATOM      5  N   UNL     1      -2.286  -6.782  -0.023  0.00  0.00    -0.157 NA
ATOM      6  C   UNL     1      -2.226  -5.479  -0.040  0.00  0.00    +0.210 A 
ATOM      7  C   UNL     1      -3.494  -4.658  -0.051  0.00  0.00    +0.285 A 
ATOM      8  O   UNL     1      -3.449  -3.436   0.008  0.00  0.00    -0.265 OA
ATOM      9  N   UNL     1      -4.655  -5.363  -0.134  0.00  0.00    -0.272 N 
ATOM     10  H   UNL     1      -5.527  -4.859  -0.167  0.00  0.00    +0.174 HD
ENDROOT
BRANCH   6  11
ATOM     11  C   UNL     1      -0.831  -4.840  -0.049  0.00  0.00    +0.269 C 
ATOM     12  N   UNL     1      -0.791  -3.465  -0.165  0.00  0.00    -0.313 N 
ATOM     13  H   UNL     1      -1.665  -2.941  -0.118  0.00  0.00    +0.149 HD
ATOM     14  C   UNL     1       0.449  -2.737  -0.086  0.00  0.00    +0.128 C 
ATOM     15  O   UNL     1       0.167  -5.542   0.051  0.00  0.00    -0.268 OA
ENDBRANCH   6  11
TORSDOF 1
