REMARK  Name = min_compound3.pdb
REMARK  3 active torsions:
REMARK  status: ('A' for Active; 'I' for Inactive)
REMARK    1  A    between atoms: _3  and  _8
REMARK    2  A    between atoms: _8  and  _9
REMARK    3  A    between atoms: _9  and  _10
REMARK                            x       y       z     vdW  Elec       q    Type
REMARK                         _______ _______ _______ _____ _____    ______ ____
ROOT
ATOM      1  H   UNL     1       0.102   2.595  -0.521  0.00  0.00    +0.122 HD
ATOM      2  N   UNL     1       0.924   2.900   0.000  0.00  0.00    -0.314 NA
ATOM      3  C   UNL     1       2.120   2.625  -0.835  0.00  0.00    +0.096 C 
ATOM      4  C   UNL     1       3.522   2.900   0.000  0.00  0.00    +0.099 C 
ATOM      5  N   UNL     1       3.522   4.399   0.000  0.00  0.00    -0.299 NA
ATOM      6  C   UNL     1       2.313   4.665   0.849  0.00  0.00    +0.099 C 
ATOM      7  C   UNL     1       0.924   4.399   0.000  0.00  0.00    +0.096 C 
ENDROOT
BRANCH   5   8
ATOM      8  C   UNL     1       4.713   4.889   0.736  0.00  0.00    +0.099 C 
BRANCH   8   9
ATOM      9  C   UNL     1       6.029   4.753  -0.059  0.00  0.00    +0.093 C 
BRANCH   9  10
ATOM     10  N   UNL     1       7.152   5.380   0.644  0.00  0.00    -0.329 NA
ATOM     11  H   UNL     1       6.973   6.379   0.735  0.00  0.00    +0.118 HD
ATOM     12  H   UNL     1       7.989   5.296   0.067  0.00  0.00    +0.118 HD
ENDBRANCH   9  10
ENDBRANCH   8   9
ENDBRANCH   5   8
TORSDOF 3
