REMARK  Name = min_compound974.pdb
REMARK  3 active torsions:
REMARK  status: ('A' for Active; 'I' for Inactive)
REMARK    1  A    between atoms: _10  and  _18
REMARK    2  A    between atoms: _12  and  _15
REMARK    3  A    between atoms: _15  and  _17
REMARK                            x       y       z     vdW  Elec       q    Type
REMARK                         _______ _______ _______ _____ _____    ______ ____
ROOT
ATOM      1  C   UNL     1       0.858  -6.241  -0.208  0.00  0.00    -0.010 A 
ATOM      2  C   UNL     1      -0.512  -5.915  -0.285  0.00  0.00    +0.066 A 
ATOM      3  C   UNL     1      -1.473  -6.844   0.153  0.00  0.00    +0.015 A 
ATOM      4  C   UNL     1      -1.085  -8.088   0.652  0.00  0.00    +0.001 A 
ATOM      5  C   UNL     1       0.264  -8.417   0.719  0.00  0.00    +0.001 A 
ATOM      6  C   UNL     1       1.228  -7.501   0.292  0.00  0.00    +0.009 A 
ENDROOT
BRANCH   1  12
ATOM      7  H   UNL     1       4.165  -1.491  -0.216  0.00  0.00    +0.156 HD
ATOM      8  N   UNL     1       3.480  -2.183   0.045  0.00  0.00    -0.270 N 
ATOM      9  C   UNL     1       2.611  -1.984   1.073  0.00  0.00    +0.118 C 
ATOM     10  S   UNL     1       1.600  -3.397   1.277  0.00  0.00    -0.061 S 
ATOM     11  C   UNL     1       2.304  -4.193  -0.084  0.00  0.00    +0.077 C 
ATOM     12  C   UNL     1       1.954  -5.360  -0.639  0.00  0.00    +0.029 C 
ATOM     13  S   UNL     1       2.561  -0.598   1.977  0.00  0.00    -0.027 S 
ATOM     14  C   UNL     1       3.410  -3.366  -0.636  0.00  0.00    +0.256 C 
ATOM     15  O   UNL     1       4.156  -3.690  -1.545  0.00  0.00    -0.269 OA
ENDBRANCH   1  12
BRANCH   2  16
ATOM     16  C   UNL     1      -0.975  -4.625  -0.863  0.00  0.00    +0.337 C 
ATOM     17  O   UNL     1      -0.391  -3.925  -1.669  0.00  0.00    -0.245 OA
BRANCH  16  18
ATOM     18  O   UNL     1      -2.167  -4.248  -0.360  0.00  0.00    -0.477 OA
ATOM     19  H   UNL     1      -2.335  -3.378  -0.778  0.00  0.00    +0.295 HD
ENDBRANCH  16  18
ENDBRANCH   2  16
TORSDOF 3
