REMARK  Name = min_compound943.pdb
REMARK  2 active torsions:
REMARK  status: ('A' for Active; 'I' for Inactive)
REMARK    1  A    between atoms: _1  and  _3
REMARK    2  A    between atoms: _1  and  _21
REMARK                            x       y       z     vdW  Elec       q    Type
REMARK                         _______ _______ _______ _____ _____    ______ ____
ROOT
ATOM      1  C   UNL     1       3.500   1.816   0.364  0.00  0.00    +0.216 A 
ATOM      2  N   UNL     1       4.555   0.986   0.266  0.00  0.00    -0.204 NA
ATOM      3  C   UNL     1       5.788   1.541   0.158  0.00  0.00    +0.128 A 
ATOM      4  S   UNL     1       7.126   0.367   0.026  0.00  0.00    -0.045 S 
ATOM      5  C   UNL     1       8.567   1.410  -0.007  0.00  0.00    +0.144 A 
ATOM      6  N   UNL     1       9.759   0.761  -0.042  0.00  0.00    -0.235 NA
ATOM      7  C   UNL     1      10.867   1.522  -0.064  0.00  0.00    +0.091 A 
ATOM      8  C   UNL     1      12.115   0.913  -0.092  0.00  0.00    +0.030 A 
ATOM      9  C   UNL     1      13.291   1.665  -0.112  0.00  0.00    +0.002 A 
ATOM     10  C   UNL     1      13.217   3.052  -0.105  0.00  0.00    +0.002 A 
ATOM     11  C   UNL     1      11.968   3.674  -0.077  0.00  0.00    +0.030 A 
ATOM     12  C   UNL     1      10.791   2.936  -0.055  0.00  0.00    +0.091 A 
ATOM     13  N   UNL     1       9.606   3.576  -0.025  0.00  0.00    -0.228 NA
ATOM     14  C   UNL     1       8.493   2.809   0.002  0.00  0.00    +0.156 A 
ATOM     15  N   UNL     1       7.280   3.492   0.048  0.00  0.00    -0.295 N 
ATOM     16  H   UNL     1       7.394   4.495   0.069  0.00  0.00    +0.154 HD
ATOM     17  C   UNL     1       6.009   2.927   0.151  0.00  0.00    +0.065 A 
ATOM     18  C   UNL     1       4.889   3.754   0.259  0.00  0.00    +0.031 A 
ATOM     19  C   UNL     1       3.618   3.196   0.378  0.00  0.00    +0.069 A 
ENDROOT
BRANCH   1  20
ATOM     20  O   UNL     1       2.298   1.183   0.528  0.00  0.00    -0.480 OA
ATOM     21  C   UNL     1       1.297   1.653  -0.367  0.00  0.00    +0.279 C 
ENDBRANCH   1  20
TORSDOF 1
