REMARK  Name = min_compound935.pdb
REMARK  4 active torsions:
REMARK  status: ('A' for Active; 'I' for Inactive)
REMARK    1  A    between atoms: _1  and  _7
REMARK    2  A    between atoms: _5  and  _19
REMARK    3  A    between atoms: _8  and  _18
REMARK    4  A    between atoms: _9  and  _20
REMARK                            x       y       z     vdW  Elec       q    Type
REMARK                         _______ _______ _______ _____ _____    ______ ____
ROOT
ATOM      1  C   UNL     1      -3.999  -4.414  -0.160  0.00  0.00    +0.042 A 
ATOM      2  C   UNL     1      -5.258  -5.066  -0.086  0.00  0.00    -0.006 A 
ATOM      3  C   UNL     1      -6.505  -4.395  -0.097  0.00  0.00    +0.009 A 
ATOM      4  C   UNL     1      -7.712  -5.094  -0.021  0.00  0.00    +0.001 A 
ATOM      5  C   UNL     1      -7.706  -6.479   0.072  0.00  0.00    +0.001 A 
ATOM      6  C   UNL     1      -6.493  -7.167   0.098  0.00  0.00    +0.008 A 
ATOM      7  C   UNL     1      -5.270  -6.480   0.024  0.00  0.00    -0.017 A 
ATOM      8  C   UNL     1      -4.060  -7.190   0.063  0.00  0.00    +0.012 A 
ATOM      9  C   UNL     1      -2.833  -6.530  -0.013  0.00  0.00    +0.046 A 
ATOM     10  C   UNL     1      -2.804  -5.146  -0.132  0.00  0.00    +0.126 A 
ENDROOT
BRANCH   1  12
ATOM     11  N   UNL     1      -3.300  -2.203   0.534  0.00  0.00    -0.251 NA
ATOM     12  C   UNL     1      -3.944  -2.947  -0.306  0.00  0.00    +0.123 C 
BRANCH  11  13
ATOM     13  C   UNL     1      -3.297  -0.818   0.288  0.00  0.00    +0.105 A 
ATOM     14  C   UNL     1      -2.054  -0.190   0.150  0.00  0.00    +0.031 A 
ATOM     15  C   UNL     1      -1.963   1.187  -0.064  0.00  0.00    +0.002 A 
ATOM     16  C   UNL     1      -3.122   1.957  -0.134  0.00  0.00    +0.004 A 
ATOM     17  C   UNL     1      -4.372   1.354   0.014  0.00  0.00    +0.047 A 
ATOM     18  C   UNL     1      -4.456  -0.025   0.229  0.00  0.00    +0.142 A 
BRANCH  18  19
ATOM     19  O   UNL     1      -5.689  -0.608   0.378  0.00  0.00    -0.505 OA
ATOM     20  H   UNL     1      -6.340   0.096   0.528  0.00  0.00    +0.292 HD
ENDBRANCH  18  19
ENDBRANCH  11  13
ENDBRANCH   1  12
BRANCH  10  21
ATOM     21  O   UNL     1      -1.599  -4.518  -0.279  0.00  0.00    -0.506 OA
ATOM     22  H   UNL     1      -0.895  -5.101   0.046  0.00  0.00    +0.292 HD
ENDBRANCH  10  21
TORSDOF 4
