REMARK  Name = min_compound992.pdb
REMARK  8 active torsions:
REMARK  status: ('A' for Active; 'I' for Inactive)
REMARK    1  A    between atoms: _1  and  _2
REMARK    2  A    between atoms: _1  and  _18
REMARK    3  A    between atoms: _2  and  _7
REMARK    4  A    between atoms: _3  and  _4
REMARK    5  A    between atoms: _3  and  _6
REMARK    6  A    between atoms: _4  and  _12
REMARK    7  A    between atoms: _5  and  _24
REMARK    8  A    between atoms: _9  and  _23
REMARK                            x       y       z     vdW  Elec       q    Type
REMARK                         _______ _______ _______ _____ _____    ______ ____
ROOT
ATOM      1  C   UNL     1      -9.767  -3.901   0.164  0.00  0.00    +0.130 A 
ATOM      2  C   UNL     1      -9.718  -5.307   0.158  0.00  0.00    +0.143 A 
ATOM      3  C   UNL     1      -8.528  -5.999  -0.037  0.00  0.00    +0.049 A 
ATOM      4  C   UNL     1      -7.345  -5.286  -0.220  0.00  0.00    +0.032 A 
ATOM      5  C   UNL     1      -7.343  -3.883  -0.188  0.00  0.00    +0.088 A 
ATOM      6  C   UNL     1      -8.561  -3.204  -0.001  0.00  0.00    +0.165 A 
ENDROOT
BRANCH   2   7
ATOM      7  O   UNL     1     -10.853  -6.053   0.348  0.00  0.00    -0.505 OA
ATOM      8  H   UNL     1     -11.583  -5.405   0.407  0.00  0.00    +0.292 HD
ENDBRANCH   2   7
BRANCH   1   9
ATOM      9  N   UNL     1     -10.979  -3.211   0.394  0.00  0.00    -0.260 N 
ATOM     10  H   UNL     1     -11.143  -2.606   1.153  0.00  0.00    +0.170 HD
BRANCH   9  11
ATOM     11  N   UNL     1     -11.816  -3.474  -0.499  0.00  0.00    -0.266 N 
ATOM     12  H   UNL     1     -11.645  -4.069  -1.264  0.00  0.00    +0.170 HD
BRANCH  11  13
ATOM     13  C   UNL     1     -13.035  -2.807  -0.266  0.00  0.00    +0.044 A 
ATOM     14  C   UNL     1     -14.217  -3.556  -0.213  0.00  0.00    +0.024 A 
ATOM     15  C   UNL     1     -15.450  -2.930  -0.012  0.00  0.00    +0.002 A 
ATOM     16  C   UNL     1     -15.512  -1.545   0.127  0.00  0.00    +0.000 A 
ATOM     17  C   UNL     1     -14.345  -0.785   0.061  0.00  0.00    +0.002 A 
ATOM     18  C   UNL     1     -13.113  -1.414  -0.139  0.00  0.00    +0.024 A 
ENDBRANCH  11  13
ENDBRANCH   9  11
ENDBRANCH   1   9
BRANCH   6  19
ATOM     19  O   UNL     1      -8.570  -1.827   0.024  0.00  0.00    -0.503 OA
ATOM     20  H   UNL     1      -7.644  -1.542  -0.091  0.00  0.00    +0.292 HD
ENDBRANCH   6  19
BRANCH   5  21
ATOM     21  N   UNL     1      -6.154  -3.151  -0.392  0.00  0.00    -0.263 N 
ATOM     22  H   UNL     1      -5.997  -2.529  -1.139  0.00  0.00    +0.170 HD
BRANCH  21  23
ATOM     23  N   UNL     1      -5.327  -3.406   0.513  0.00  0.00    -0.266 N 
ATOM     24  H   UNL     1      -5.514  -3.976   1.293  0.00  0.00    +0.170 HD
BRANCH  23  25
ATOM     25  C   UNL     1      -4.096  -2.770   0.268  0.00  0.00    +0.044 A 
ATOM     26  C   UNL     1      -2.942  -3.552   0.133  0.00  0.00    +0.024 A 
ATOM     27  C   UNL     1      -1.696  -2.956  -0.075  0.00  0.00    +0.002 A 
ATOM     28  C   UNL     1      -1.592  -1.568  -0.141  0.00  0.00    +0.000 A 
ATOM     29  C   UNL     1      -2.730  -0.776   0.005  0.00  0.00    +0.002 A 
ATOM     30  C   UNL     1      -3.975  -1.375   0.214  0.00  0.00    +0.024 A 
ENDBRANCH  23  25
ENDBRANCH  21  23
ENDBRANCH   5  21
TORSDOF 8
