REMARK  Name = min_compound937.pdb
REMARK  8 active torsions:
REMARK  status: ('A' for Active; 'I' for Inactive)
REMARK    1  A    between atoms: _1  and  _2
REMARK    2  A    between atoms: _1  and  _10
REMARK    3  A    between atoms: _2  and  _17
REMARK    4  A    between atoms: _4  and  _17
REMARK    5  A    between atoms: _7  and  _18
REMARK    6  A    between atoms: _12  and  _15
REMARK    7  A    between atoms: _15  and  _16
REMARK    8  A    between atoms: _18  and  _19
REMARK                            x       y       z     vdW  Elec       q    Type
REMARK                         _______ _______ _______ _____ _____    ______ ____
ROOT
ATOM      1  N   UNL     1      -3.044   3.938   0.234  0.00  0.00    -0.163 NA
ATOM      2  H   UNL     1      -2.916   3.987  -0.777  0.00  0.00    +0.168 HD
ENDROOT
BRANCH   1   3
ATOM      3  N   UNL     1      -4.176   4.575   0.593  0.00  0.00    -0.261 N 
ATOM      4  H   UNL     1      -5.025   4.017   0.576  0.00  0.00    +0.168 HD
BRANCH   3   5
ATOM      5  C   UNL     1      -4.378   5.906   0.167  0.00  0.00    +0.084 A 
ATOM      6  C   UNL     1      -5.694   6.410   0.071  0.00  0.00    +0.142 A 
ATOM      7  C   UNL     1      -5.905   7.749  -0.274  0.00  0.00    +0.047 A 
ATOM      8  C   UNL     1      -4.817   8.594  -0.512  0.00  0.00    +0.004 A 
ATOM      9  C   UNL     1      -3.517   8.108  -0.406  0.00  0.00    +0.002 A 
ATOM     10  C   UNL     1      -3.300   6.773  -0.063  0.00  0.00    +0.028 A 
BRANCH   6  11
ATOM     11  O   UNL     1      -6.691   5.495   0.323  0.00  0.00    -0.493 OA
ATOM     12  C   UNL     1      -8.032   5.952   0.204  0.00  0.00    +0.277 C 
ENDBRANCH   6  11
ENDBRANCH   3   5
ENDBRANCH   1   3
BRANCH   1  13
ATOM     13  N   UNL     1      -3.184   2.755   0.595  0.00  0.00    -0.261 N 
ATOM     14  H   UNL     1      -3.979   2.415   1.066  0.00  0.00    +0.168 HD
BRANCH  13  15
ATOM     15  C   UNL     1      -2.071   1.958   0.250  0.00  0.00    +0.084 A 
ATOM     16  C   UNL     1      -0.729   2.290   0.520  0.00  0.00    +0.142 A 
ATOM     17  C   UNL     1       0.308   1.400   0.210  0.00  0.00    +0.047 A 
ATOM     18  C   UNL     1       0.023   0.180  -0.400  0.00  0.00    +0.004 A 
ATOM     19  C   UNL     1      -1.296  -0.161  -0.686  0.00  0.00    +0.002 A 
ATOM     20  C   UNL     1      -2.332   0.719  -0.356  0.00  0.00    +0.028 A 
BRANCH  16  21
ATOM     21  O   UNL     1      -0.421   3.457   1.175  0.00  0.00    -0.493 OA
ATOM     22  C   UNL     1       0.227   4.374   0.292  0.00  0.00    +0.277 C 
ENDBRANCH  16  21
ENDBRANCH  13  15
ENDBRANCH   1  13
TORSDOF 6
