REMARK  Name = min_compound975.pdb
REMARK  5 active torsions:
REMARK  status: ('A' for Active; 'I' for Inactive)
REMARK    1  A    between atoms: _2  and  _15
REMARK    2  A    between atoms: _5  and  _13
REMARK    3  A    between atoms: _7  and  _19
REMARK    4  A    between atoms: _8  and  _18
REMARK    5  A    between atoms: _15  and  _17
REMARK                            x       y       z     vdW  Elec       q    Type
REMARK                         _______ _______ _______ _____ _____    ______ ____
ROOT
ATOM      1  C   UNL     1       2.707  -1.280  -0.307  0.00  0.00    +0.249 C 
ATOM      2  N   UNL     1       2.927  -2.636  -0.262  0.00  0.00    -0.281 N 
ATOM      3  H   UNL     1       2.049  -3.112  -0.449  0.00  0.00    +0.155 HD
ATOM      4  O   UNL     1       1.536  -0.910  -0.423  0.00  0.00    -0.270 OA
ENDROOT
BRANCH   1   7
ATOM      5  C   UNL     1       4.538   2.017   0.124  0.00  0.00    +0.016 A 
ATOM      6  C   UNL     1       3.571   1.007   0.226  0.00  0.00    +0.071 A 
ATOM      7  C   UNL     1       3.775  -0.254  -0.355  0.00  0.00    +0.051 A 
ATOM      8  C   UNL     1       4.934  -0.454  -1.119  0.00  0.00    +0.014 A 
ATOM      9  C   UNL     1       5.910   0.545  -1.205  0.00  0.00    +0.001 A 
ATOM     10  C   UNL     1       5.716   1.776  -0.579  0.00  0.00    +0.001 A 
BRANCH   6  11
ATOM     11  C   UNL     1       2.336   1.321   0.952  0.00  0.00    +0.338 C 
ATOM     12  O   UNL     1       2.027   0.914   2.053  0.00  0.00    -0.245 OA
BRANCH  11  13
ATOM     13  O   UNL     1       1.566   2.135   0.210  0.00  0.00    -0.477 OA
ATOM     14  H   UNL     1       0.708   2.157   0.682  0.00  0.00    +0.295 HD
ENDBRANCH  11  13
ENDBRANCH   6  11
ENDBRANCH   1   7
BRANCH   2  15
ATOM     15  C   UNL     1       4.026  -3.476  -0.016  0.00  0.00    +0.040 A 
ATOM     16  C   UNL     1       3.857  -4.821  -0.392  0.00  0.00    +0.024 A 
ATOM     17  C   UNL     1       4.887  -5.753  -0.247  0.00  0.00    +0.008 A 
ATOM     18  C   UNL     1       6.105  -5.354   0.291  0.00  0.00    +0.084 A 
ATOM     19  C   UNL     1       6.266  -4.027   0.706  0.00  0.00    +0.275 A 
ATOM     20  C   UNL     1       5.225  -3.088   0.575  0.00  0.00    +0.107 A 
BRANCH  19  21
ATOM     21  N   UNL     1       7.555  -3.608   1.268  0.00  0.00    +0.080 N 
ATOM     22  O   UNL     1       7.757  -2.393   1.403  0.00  0.00    +0.041 OA
ATOM     23  O   UNL     1       8.375  -4.492   1.556  0.00  0.00    -0.576 OA
ENDBRANCH  19  21
ENDBRANCH   2  15
TORSDOF 5
