REMARK  Name = min_compound929.pdb
REMARK  4 active torsions:
REMARK  status: ('A' for Active; 'I' for Inactive)
REMARK    1  A    between atoms: _1  and  _3
REMARK    2  A    between atoms: _1  and  _14
REMARK    3  A    between atoms: _6  and  _8
REMARK    4  A    between atoms: _13  and  _17
REMARK                            x       y       z     vdW  Elec       q    Type
REMARK                         _______ _______ _______ _____ _____    ______ ____
ROOT
ATOM      1  C   UNL     1       2.668   2.336   0.605  0.00  0.00    +0.279 C 
ATOM      2  N   UNL     1       4.014   2.514   0.441  0.00  0.00    -0.231 N 
ATOM      3  H   UNL     1       4.446   1.746  -0.046  0.00  0.00    +0.160 HD
ATOM      4  C   UNL     1       4.573   3.753   0.187  0.00  0.00    +0.313 C 
ATOM      5  N   UNL     1       5.953   3.647   0.067  0.00  0.00    -0.236 N 
ATOM      6  H   UNL     1       6.366   2.926   0.635  0.00  0.00    +0.159 HD
ATOM      7  C   UNL     1       6.776   4.657  -0.398  0.00  0.00    +0.251 C 
ATOM      8  O   UNL     1       6.415   5.645  -1.023  0.00  0.00    -0.270 OA
ATOM      9  O   UNL     1       3.940   4.794   0.111  0.00  0.00    -0.252 OA
ATOM     10  O   UNL     1       1.873   3.037   1.205  0.00  0.00    -0.263 OA
ENDROOT
BRANCH   7  11
ATOM     11  C   UNL     1       8.239   4.466  -0.174  0.00  0.00    +0.038 A 
ATOM     12  C   UNL     1       8.836   3.197  -0.176  0.00  0.00    +0.019 A 
ATOM     13  C   UNL     1      10.222   3.072  -0.017  0.00  0.00    +0.085 A 
ATOM     14  C   UNL     1      11.014   4.221   0.135  0.00  0.00    +0.273 A 
ATOM     15  C   UNL     1      10.426   5.492   0.134  0.00  0.00    +0.085 A 
ATOM     16  C   UNL     1       9.041   5.609  -0.025  0.00  0.00    +0.019 A 
BRANCH  14  17
ATOM     17  N   UNL     1      12.470   4.088   0.277  0.00  0.00    +0.080 N 
ATOM     18  O   UNL     1      12.943   2.942   0.282  0.00  0.00    +0.041 OA
ATOM     19  O   UNL     1      13.137   5.126   0.384  0.00  0.00    -0.576 OA
ENDBRANCH  14  17
ENDBRANCH   7  11
BRANCH   1  20
ATOM     20  S   UNL     1       2.250   0.750   0.000  0.00  0.00    -0.071 S 
ATOM     21  C   UNL     1       0.750   0.750   0.000  0.00  0.00    +0.094 C 
ENDBRANCH   1  20
TORSDOF 3
