REMARK  Name = min_compound927.pdb
REMARK  8 active torsions:
REMARK  status: ('A' for Active; 'I' for Inactive)
REMARK    1  A    between atoms: _1  and  _16
REMARK    2  A    between atoms: _2  and  _10
REMARK    3  A    between atoms: _9  and  _11
REMARK    4  A    between atoms: _10  and  _13
REMARK    5  A    between atoms: _11  and  _15
REMARK    6  A    between atoms: _12  and  _15
REMARK    7  A    between atoms: _12  and  _19
REMARK    8  A    between atoms: _12  and  _20
REMARK                            x       y       z     vdW  Elec       q    Type
REMARK                         _______ _______ _______ _____ _____    ______ ____
ROOT
ATOM      1  C   UNL     1       3.869   3.059   0.087  0.00  0.00    +0.280 A 
ATOM      2  C   UNL     1       5.114   3.704   0.034  0.00  0.00    +0.107 A 
ATOM      3  C   UNL     1       6.294   2.960   0.088  0.00  0.00    +0.037 A 
ATOM      4  N   UNL     1       7.523   3.624  -0.036  0.00  0.00    -0.339 N 
ATOM      5  H   UNL     1       7.493   4.564   0.353  0.00  0.00    +0.146 HD
ATOM      6  C   UNL     1       8.721   2.873   0.368  0.00  0.00    +0.084 C 
ATOM      7  C   UNL     1       8.692   1.489  -0.290  0.00  0.00    +0.028 C 
ATOM      8  C   UNL     1       7.460   0.718   0.169  0.00  0.00    +0.039 C 
ATOM      9  C   UNL     1       6.209   1.558   0.117  0.00  0.00    -0.026 A 
ATOM     10  C   UNL     1       4.953   0.922   0.161  0.00  0.00    +0.018 A 
ATOM     11  C   UNL     1       3.760   1.659   0.142  0.00  0.00    +0.055 A 
ENDROOT
BRANCH   1  12
ATOM     12  N   UNL     1       2.683   3.907   0.118  0.00  0.00    +0.080 N 
ATOM     13  O   UNL     1       2.611   4.819  -0.718  0.00  0.00    +0.041 OA
ATOM     14  O   UNL     1       1.860   3.703   1.024  0.00  0.00    -0.576 OA
ENDBRANCH   1  12
BRANCH   6  15
ATOM     15  C   UNL     1       9.987   3.673  -0.050  0.00  0.00    +0.103 C 
BRANCH  15  16
ATOM     16  N   UNL     1      11.216   3.185   0.596  0.00  0.00    -0.312 NA
ATOM     17  H   UNL     1      11.265   2.169   0.527  0.00  0.00    +0.122 HD
BRANCH  16  18
ATOM     18  C   UNL     1      12.441   3.750   0.000  0.00  0.00    +0.048 C 
ATOM     19  C   UNL     1      13.650   3.138   0.723  0.00  0.00    +0.023 C 
ATOM     20  C   UNL     1      12.441   5.250   0.000  0.00  0.00    +0.023 C 
ENDBRANCH  16  18
ENDBRANCH  15  16
ENDBRANCH   6  15
BRANCH  11  21
ATOM     21  C   UNL     1       2.442   0.939   0.175  0.00  0.00    +0.197 C 
BRANCH  21  22
ATOM     22  O   UNL     1       1.654   1.375  -0.921  0.00  0.00    -0.390 OA
ATOM     23  H   UNL     1       0.727   1.179  -0.699  0.00  0.00    +0.210 HD
ENDBRANCH  21  22
ENDBRANCH  11  21
TORSDOF 6
