REMARK  Name = min_compound921.pdb
REMARK  4 active torsions:
REMARK  status: ('A' for Active; 'I' for Inactive)
REMARK    1  A    between atoms: _6  and  _7
REMARK    2  A    between atoms: _12  and  _13
REMARK    3  A    between atoms: _13  and  _17
REMARK    4  A    between atoms: _14  and  _18
REMARK                            x       y       z     vdW  Elec       q    Type
REMARK                         _______ _______ _______ _____ _____    ______ ____
ROOT
ATOM      1 CL   UNL     1      -3.975   7.863  -0.112  0.00  0.00    -0.081 Cl
ATOM      2  C   UNL     1      -2.269   7.586  -0.039  0.00  0.00    +0.065 A 
ATOM      3  C   UNL     1      -1.655   6.322  -0.034  0.00  0.00    +0.065 A 
ATOM      4  C   UNL     1      -0.247   6.248  -0.144  0.00  0.00    +0.037 A 
ATOM      5  C   UNL     1       0.538   7.405  -0.252  0.00  0.00    -0.000 A 
ATOM      6  C   UNL     1      -0.089   8.653  -0.220  0.00  0.00    +0.011 A 
ATOM      7  C   UNL     1      -1.478   8.741  -0.119  0.00  0.00    +0.023 A 
ENDROOT
BRANCH   3   8
ATOM      8  N   UNL     1      -2.376   5.094   0.079  0.00  0.00    -0.322 N 
ATOM      9  C   UNL     1      -1.972   3.873  -0.439  0.00  0.00    +0.091 A 
ATOM     10  C   UNL     1      -2.913   2.913  -0.137  0.00  0.00    +0.019 A 
ATOM     11  C   UNL     1      -3.918   3.542   0.622  0.00  0.00    +0.019 A 
ATOM     12  C   UNL     1      -3.557   4.865   0.758  0.00  0.00    +0.091 A 
ENDBRANCH   3   8
BRANCH   5  13
ATOM     13  C   UNL     1       2.034   7.342  -0.391  0.00  0.00    +0.063 C 
ATOM     14  C   UNL     1       2.644   6.022  -0.826  0.00  0.00    +0.068 C 
ATOM     15  N   UNL     1       2.714   8.434  -0.173  0.00  0.00    -0.183 NA
BRANCH  15  16
ATOM     16  N   UNL     1       4.084   8.384  -0.208  0.00  0.00    -0.191 N 
ATOM     17  H   UNL     1       4.490   9.290  -0.403  0.00  0.00    +0.179 HD
ATOM     18  C   UNL     1       4.795   7.661   0.737  0.00  0.00    +0.317 C 
ATOM     19  N   UNL     1       6.140   7.871   0.652  0.00  0.00    -0.312 N 
ATOM     20  H   UNL     1       6.509   8.726   0.269  0.00  0.00    +0.147 HD
ATOM     21  H   UNL     1       6.684   7.421   1.378  0.00  0.00    +0.147 HD
ATOM     22  O   UNL     1       4.344   6.858   1.545  0.00  0.00    -0.251 OA
ENDBRANCH  15  16
ENDBRANCH   5  13
TORSDOF 3
