REMARK  Name = min_compound944.pdb
REMARK  3 active torsions:
REMARK  status: ('A' for Active; 'I' for Inactive)
REMARK    1  A    between atoms: _14  and  _16
REMARK    2  A    between atoms: _17  and  _18
REMARK    3  A    between atoms: _18  and  _20
REMARK                            x       y       z     vdW  Elec       q    Type
REMARK                         _______ _______ _______ _____ _____    ______ ____
ROOT
ATOM      1  N   UNL     1       4.795   0.935  -0.001  0.00  0.00    -0.250 NA
ATOM      2  C   UNL     1       5.908   1.687  -0.008  0.00  0.00    +0.064 A 
ATOM      3  C   UNL     1       7.315   1.153  -0.032  0.00  0.00    +0.164 C 
ATOM      4  N   UNL     1       8.143   2.362  -0.029  0.00  0.00    -0.288 N 
ATOM      5  C   UNL     1       9.508   2.252  -0.043  0.00  0.00    +0.240 C 
ATOM      6  O   UNL     1      10.081   1.166  -0.059  0.00  0.00    -0.271 OA
ATOM      7  C   UNL     1       7.329   3.579  -0.007  0.00  0.00    +0.145 C 
ATOM      8  C   UNL     1       5.929   3.074   0.006  0.00  0.00    -0.007 A 
ATOM      9  C   UNL     1       4.734   3.763   0.029  0.00  0.00    +0.017 A 
ATOM     10  C   UNL     1       3.544   3.020   0.037  0.00  0.00    +0.001 A 
ATOM     11  C   UNL     1       2.290   3.654   0.061  0.00  0.00    +0.010 A 
ATOM     12  C   UNL     1       1.118   2.900   0.069  0.00  0.00    +0.001 A 
ATOM     13  C   UNL     1       1.192   1.512   0.053  0.00  0.00    +0.002 A 
ATOM     14  C   UNL     1       2.438   0.879   0.030  0.00  0.00    +0.028 A 
ATOM     15  C   UNL     1       3.624   1.600   0.021  0.00  0.00    +0.071 A 
ENDROOT
BRANCH   5  16
ATOM     16  C   UNL     1      10.281   3.519  -0.039  0.00  0.00    +0.074 C 
ATOM     17  C   UNL     1      11.621   3.464  -0.040  0.00  0.00    +0.096 C 
BRANCH  17  18
ATOM     18  C   UNL     1      12.471   4.657  -0.036  0.00  0.00    +0.330 C 
ATOM     19  O   UNL     1      13.688   4.641  -0.037  0.00  0.00    -0.246 OA
BRANCH  18  20
ATOM     20  O   UNL     1      11.785   5.811  -0.032  0.00  0.00    -0.478 OA
ATOM     21  H   UNL     1      12.490   6.493  -0.030  0.00  0.00    +0.295 HD
ENDBRANCH  18  20
ENDBRANCH  17  18
ENDBRANCH   5  16
TORSDOF 3
