REMARK  Name = min_compound978.pdb
REMARK  4 active torsions:
REMARK  status: ('A' for Active; 'I' for Inactive)
REMARK    1  A    between atoms: _13  and  _15
REMARK    2  A    between atoms: _15  and  _16
REMARK    3  A    between atoms: _16  and  _17
REMARK    4  A    between atoms: _17  and  _19
REMARK                            x       y       z     vdW  Elec       q    Type
REMARK                         _______ _______ _______ _____ _____    ______ ____
ROOT
ATOM      1  C   UNL     1       8.154   2.069   0.414  0.00  0.00    +0.017 A 
ATOM      2  C   UNL     1       6.985   1.289   0.429  0.00  0.00    +0.034 A 
ATOM      3  C   UNL     1       6.954   0.009  -0.167  0.00  0.00    +0.048 A 
ATOM      4  N   UNL     1       5.789  -0.793  -0.114  0.00  0.00    -0.298 N 
ATOM      5  C   UNL     1       4.475  -0.236  -0.051  0.00  0.00    +0.048 A 
ATOM      6  C   UNL     1       3.350  -0.904  -0.582  0.00  0.00    +0.024 A 
ATOM      7  C   UNL     1       2.067  -0.347  -0.540  0.00  0.00    +0.002 A 
ATOM      8  C   UNL     1       1.874   0.910   0.013  0.00  0.00    +0.001 A 
ATOM      9  C   UNL     1       2.964   1.605   0.528  0.00  0.00    +0.017 A 
ATOM     10  C   UNL     1       4.253   1.043   0.503  0.00  0.00    +0.034 A 
ATOM     11  C   UNL     1       8.115  -0.394  -0.852  0.00  0.00    +0.024 A 
ATOM     12  C   UNL     1       9.281   0.380  -0.860  0.00  0.00    +0.002 A 
ATOM     13  S   UNL     1       5.565   1.994   1.247  0.00  0.00    -0.086 S 
ATOM     14  C   UNL     1       9.304   1.609  -0.217  0.00  0.00    +0.001 A 
ENDROOT
BRANCH   4  15
ATOM     15  C   UNL     1       5.870  -2.270  -0.252  0.00  0.00    +0.122 C 
BRANCH  15  16
ATOM     16  C   UNL     1       6.973  -2.952   0.561  0.00  0.00    +0.139 C 
BRANCH  16  17
ATOM     17  C   UNL     1       6.715  -4.434   0.625  0.00  0.00    +0.306 C 
ATOM     18  O   UNL     1       5.692  -5.022   0.330  0.00  0.00    -0.251 OA
BRANCH  17  19
ATOM     19  O   UNL     1       7.790  -5.118   1.066  0.00  0.00    -0.481 OA
ATOM     20  H   UNL     1       7.495  -6.054   1.070  0.00  0.00    +0.295 HD
ENDBRANCH  17  19
ENDBRANCH  16  17
ENDBRANCH  15  16
ENDBRANCH   4  15
TORSDOF 4
