REMARK  Name = min_compound957.pdb
REMARK  7 active torsions:
REMARK  status: ('A' for Active; 'I' for Inactive)
REMARK    1  A    between atoms: _2  and  _14
REMARK    2  A    between atoms: _4  and  _18
REMARK    3  A    between atoms: _5  and  _17
REMARK    4  A    between atoms: _6  and  _18
REMARK    5  A    between atoms: _14  and  _15
REMARK    6  A    between atoms: _14  and  _16
REMARK    7  A    between atoms: _17  and  _19
REMARK                            x       y       z     vdW  Elec       q    Type
REMARK                         _______ _______ _______ _____ _____    ______ ____
ROOT
ATOM      1  N   UNL     1      -2.795  -0.915   1.011  0.00  0.00    -0.240 NA
ATOM      2  C   UNL     1      -1.932  -1.931   0.733  0.00  0.00    +0.136 A 
ATOM      3  C   UNL     1      -0.865  -1.486  -0.020  0.00  0.00    +0.064 A 
ATOM      4  N   UNL     1      -1.028  -0.115  -0.077  0.00  0.00    -0.325 N 
ATOM      5  C   UNL     1      -2.285   0.161   0.447  0.00  0.00    +0.113 A 
ENDROOT
BRANCH   5   6
ATOM      6  C   UNL     1      -2.988   1.491   0.350  0.00  0.00    +0.049 C 
ATOM      7  C   UNL     1      -2.795   2.302   1.628  0.00  0.00    +0.015 C 
ATOM      8  C   UNL     1      -4.480   1.293   0.064  0.00  0.00    +0.015 C 
ENDBRANCH   5   6
BRANCH   3   9
ATOM      9  C   UNL     1       0.206  -2.280  -0.657  0.00  0.00    +0.210 C 
BRANCH   9  10
ATOM     10  O   UNL     1      -0.159  -2.419  -2.020  0.00  0.00    -0.389 OA
ATOM     11  H   UNL     1      -1.044  -2.826  -2.028  0.00  0.00    +0.210 HD
ENDBRANCH   9  10
ENDBRANCH   3   9
BRANCH   4  12
ATOM     12  C   UNL     1      -0.147   0.887  -0.686  0.00  0.00    +0.161 C 
BRANCH  12  13
ATOM     13  C   UNL     1       1.336   0.768  -0.397  0.00  0.00    +0.009 A 
ATOM     14  C   UNL     1       1.853   0.631   0.908  0.00  0.00    +0.047 A 
ATOM     15  C   UNL     1       3.232   0.507   1.136  0.00  0.00    +0.020 A 
ATOM     16  C   UNL     1       4.131   0.567   0.078  0.00  0.00    +0.003 A 
ATOM     17  C   UNL     1       3.653   0.770  -1.210  0.00  0.00    +0.020 A 
ATOM     18 CL   UNL     1       0.853   0.648   2.317  0.00  0.00    -0.083 Cl
ATOM     19  C   UNL     1       2.275   0.877  -1.446  0.00  0.00    +0.047 A 
ATOM     20 CL   UNL     1       1.808   1.187  -3.085  0.00  0.00    -0.083 Cl
ENDBRANCH  12  13
ENDBRANCH   4  12
TORSDOF 5
