REMARK  Name = min_compound962.pdb
REMARK  7 active torsions:
REMARK  status: ('A' for Active; 'I' for Inactive)
REMARK    1  A    between atoms: _2  and  _16
REMARK    2  A    between atoms: _4  and  _18
REMARK    3  A    between atoms: _5  and  _15
REMARK    4  A    between atoms: _7  and  _19
REMARK    5  A    between atoms: _10  and  _12
REMARK    6  A    between atoms: _14  and  _18
REMARK    7  A    between atoms: _16  and  _17
REMARK                            x       y       z     vdW  Elec       q    Type
REMARK                         _______ _______ _______ _____ _____    ______ ____
ROOT
ATOM      1  C   UNL     1       2.762  -1.161  -0.162  0.00  0.00    +0.141 A 
ATOM      2  C   UNL     1       3.490  -2.339   0.147  0.00  0.00    +0.028 A 
ATOM      3  C   UNL     1       4.789  -1.980  -0.072  0.00  0.00    +0.143 A 
ATOM      4  N   UNL     1       6.101  -2.388  -0.048  0.00  0.00    -0.302 N 
ATOM      5  C   UNL     1       6.876  -1.265  -0.392  0.00  0.00    +0.110 A 
ATOM      6  C   UNL     1       6.072  -0.221  -0.671  0.00  0.00    +0.132 A 
ATOM      7  N   UNL     1       4.775  -0.658  -0.476  0.00  0.00    -0.222 N 
ATOM      8  N   UNL     1       3.540  -0.131  -0.534  0.00  0.00    -0.173 NA
ENDROOT
BRANCH   4   9
ATOM      9  C1* UNL     1       6.561  -3.575   0.660  0.00  0.00    +0.252 C 
ATOM     10  C2* UNL     1       7.990  -4.027   0.310  0.00  0.00    +0.195 C 
ATOM     11  C3* UNL     1       7.965  -5.456   0.824  0.00  0.00    +0.178 C 
ATOM     12  C4* UNL     1       6.533  -5.902   0.500  0.00  0.00    +0.177 C 
ATOM     13  O4* UNL     1       5.723  -4.719   0.401  0.00  0.00    -0.346 OA
BRANCH  10  14
ATOM     14  O2* UNL     1       8.278  -4.053  -1.100  0.00  0.00    -0.385 OA
ATOM     15  H2* UNL     1       8.981  -4.726  -1.200  0.00  0.00    +0.210 HD
ENDBRANCH  10  14
BRANCH  11  16
ATOM     16  O3* UNL     1       9.017  -6.219   0.240  0.00  0.00    -0.386 OA
ATOM     17  H3* UNL     1       8.663  -7.123   0.086  0.00  0.00    +0.210 HD
ENDBRANCH  11  16
BRANCH  12  18
ATOM     18  C5* UNL     1       6.375  -6.739  -0.767  0.00  0.00    +0.190 C 
BRANCH  18  19
ATOM     19  O5* UNL     1       7.146  -7.937  -0.659  0.00  0.00    -0.392 OA
ATOM     20  H5* UNL     1       6.912  -8.480  -1.435  0.00  0.00    +0.210 HD
ENDBRANCH  18  19
ENDBRANCH  12  18
ENDBRANCH   4   9
BRANCH   2  21
ATOM     21  C   UNL     1       2.971  -3.593   0.564  0.00  0.00    +0.118 C 
BRANCH  21  22
ATOM     22  N   UNL     1       2.424  -4.874   0.983  0.00  0.00    -0.326 NA
ATOM     23  H   UNL     1       2.951  -5.629   0.544  0.00  0.00    +0.119 HD
ATOM     24  H   UNL     1       2.492  -4.957   1.997  0.00  0.00    +0.119 HD
ENDBRANCH  21  22
ENDBRANCH   2  21
TORSDOF 7
