REMARK  Name = min_compound961.pdb
REMARK  4 active torsions:
REMARK  status: ('A' for Active; 'I' for Inactive)
REMARK    1  A    between atoms: _10  and  _12
REMARK    2  A    between atoms: _11  and  _13
REMARK    3  A    between atoms: _13  and  _16
REMARK    4  A    between atoms: _18  and  _20
REMARK                            x       y       z     vdW  Elec       q    Type
REMARK                         _______ _______ _______ _____ _____    ______ ____
ROOT
ATOM      1  C   UNL     1      -8.338  -7.169   0.156  0.00  0.00    +0.002 A 
ATOM      2  C   UNL     1      -8.536  -8.481  -0.058  0.00  0.00    +0.001 A 
ATOM      3  C   UNL     1      -7.385  -9.328  -0.322  0.00  0.00    +0.016 A 
ATOM      4  C   UNL     1      -6.018  -8.811  -0.346  0.00  0.00    +0.030 A 
ATOM      5  S   UNL     1      -4.729  -9.914  -0.644  0.00  0.00    -0.100 S 
ATOM      6  C   UNL     1      -3.303  -8.985  -0.034  0.00  0.00    +0.167 C 
ATOM      7  C   UNL     1      -3.350  -7.610  -0.069  0.00  0.00    +0.130 C 
ATOM      8  N   UNL     1      -4.569  -6.893  -0.136  0.00  0.00    -0.334 N 
ATOM      9  H   UNL     1      -4.541  -6.206   0.606  0.00  0.00    +0.147 HD
ATOM     10  C   UNL     1      -5.811  -7.495  -0.145  0.00  0.00    +0.041 A 
ATOM     11  C   UNL     1      -6.981  -6.649   0.108  0.00  0.00    +0.024 A 
ENDROOT
BRANCH   7  12
ATOM     12  C   UNL     1      -2.129  -6.688  -0.052  0.00  0.00    -0.019 A 
ATOM     13  C   UNL     1      -0.813  -7.154  -0.217  0.00  0.00    +0.006 A 
ATOM     14  C   UNL     1       0.308  -6.313  -0.243  0.00  0.00    +0.007 A 
ATOM     15  C   UNL     1       0.147  -4.939  -0.160  0.00  0.00    +0.084 A 
ATOM     16  C   UNL     1      -1.148  -4.430  -0.060  0.00  0.00    +0.273 A 
ATOM     17  C   UNL     1      -2.266  -5.282  -0.011  0.00  0.00    +0.089 A 
BRANCH  16  18
ATOM     18  N   UNL     1      -1.347  -2.978  -0.031  0.00  0.00    +0.080 N 
ATOM     19  O   UNL     1      -2.497  -2.540   0.131  0.00  0.00    +0.041 OA
ATOM     20  O   UNL     1      -0.351  -2.249  -0.182  0.00  0.00    -0.576 OA
ENDBRANCH  16  18
ENDBRANCH   7  12
BRANCH   6  21
ATOM     21  N   UNL     1      -2.387  -9.945   0.291  0.00  0.00    -0.189 NA
ATOM     22  H   UNL     1      -1.777 -10.090  -0.514  0.00  0.00    +0.155 HD
BRANCH  21  23
ATOM     23  O   UNL     1      -1.588  -9.629   1.394  0.00  0.00    -0.314 OA
ATOM     24  H   UNL     1      -2.151  -9.487   2.171  0.00  0.00    +0.236 HD
ENDBRANCH  21  23
ENDBRANCH   6  21
TORSDOF 4
