REMARK  Name = min_compound917.pdb
REMARK  3 active torsions:
REMARK  status: ('A' for Active; 'I' for Inactive)
REMARK    1  A    between atoms: _9  and  _10
REMARK    2  A    between atoms: _9  and  _18
REMARK    3  A    between atoms: _12  and  _13
REMARK                            x       y       z     vdW  Elec       q    Type
REMARK                         _______ _______ _______ _____ _____    ______ ____
ROOT
ATOM      1  C   UNL     1       0.750  -5.422   0.000  0.00  0.00    +0.029 C 
ATOM      2  C   UNL     1       0.750  -6.922   0.000  0.00  0.00    +0.009 C 
ATOM      3  C   UNL     1       2.031  -7.125   0.979  0.00  0.00    +0.039 C 
ATOM      4  C   UNL     1       3.284  -6.592   0.347  0.00  0.00    -0.002 A 
ATOM      5  C   UNL     1       4.482  -7.147   0.133  0.00  0.00    +0.064 A 
ATOM      6  S   UNL     1       5.580  -6.018  -0.622  0.00  0.00    -0.003 S 
ATOM      7  N   UNL     1       4.488  -4.683  -0.419  0.00  0.00    -0.292 N 
ATOM      8  C   UNL     1       3.232  -5.223  -0.136  0.00  0.00    +0.051 A 
ATOM      9  C   UNL     1       2.019  -4.687  -0.324  0.00  0.00    -0.000 C 
ENDROOT
BRANCH   7  10
ATOM     10  C   UNL     1       5.089  -3.503   0.299  0.00  0.00    +0.101 C 
ATOM     11  C   UNL     1       6.037  -2.789  -0.724  0.00  0.00    +0.045 C 
ATOM     12  C   UNL     1       6.202  -1.294  -0.455  0.00  0.00    +0.004 C 
ATOM     13  C   UNL     1       4.869  -0.552  -0.581  0.00  0.00    +0.000 C 
ATOM     14  C   UNL     1       3.664  -1.432  -0.245  0.00  0.00    +0.004 C 
ATOM     15  C   UNL     1       4.031  -2.472   0.809  0.00  0.00    +0.045 C 
BRANCH  10  16
ATOM     16  N   UNL     1       5.882  -3.807   1.512  0.00  0.00    -0.308 NA
ATOM     17  H   UNL     1       6.591  -4.479   1.222  0.00  0.00    +0.120 HD
ATOM     18  H   UNL     1       5.266  -4.336   2.128  0.00  0.00    +0.120 HD
ENDBRANCH  10  16
ENDBRANCH   7  10
BRANCH   5  19
ATOM     19  S   UNL     1       4.945  -8.749   0.537  0.00  0.00    -0.134 S 
ATOM     20  H   UNL     1       6.168  -8.714  -0.012  0.00  0.00    +0.108 HD
ENDBRANCH   5  19
TORSDOF 3
