REMARK  Name = min_compound995.pdb
REMARK  5 active torsions:
REMARK  status: ('A' for Active; 'I' for Inactive)
REMARK    1  A    between atoms: _6  and  _24
REMARK    2  A    between atoms: _8  and  _9
REMARK    3  A    between atoms: _12  and  _25
REMARK    4  A    between atoms: _15  and  _22
REMARK    5  A    between atoms: _19  and  _23
REMARK                            x       y       z     vdW  Elec       q    Type
REMARK                         _______ _______ _______ _____ _____    ______ ____
ROOT
ATOM      1  O   UNL     1       5.982   1.030   0.126  0.00  0.00    -0.483 OA
ATOM      2  C   UNL     1       4.790   1.712   0.074  0.00  0.00    +0.231 C 
ATOM      3  C   UNL     1       3.660   0.881   0.113  0.00  0.00    +0.071 C 
ATOM      4  C   UNL     1       2.403   1.446   0.199  0.00  0.00    +0.158 C 
ATOM      5  C   UNL     1       2.265   2.823   0.282  0.00  0.00    +0.158 C 
ATOM      6  C   UNL     1       3.387   3.651   0.244  0.00  0.00    +0.057 C 
ATOM      7  C   UNL     1       4.680   3.115   0.068  0.00  0.00    +0.009 C 
ATOM      8  C   UNL     1       5.962   3.915   0.042  0.00  0.00    +0.003 C 
ATOM      9  C   UNL     1       7.239   3.125  -0.047  0.00  0.00    +0.025 C 
ATOM     10  C   UNL     1       8.493   3.660  -0.362  0.00  0.00    +0.060 C 
ATOM     11  C   UNL     1       9.613   2.829  -0.432  0.00  0.00    +0.160 C 
ATOM     12  C   UNL     1       9.595   1.436  -0.250  0.00  0.00    +0.204 C 
ATOM     13  C   UNL     1       8.313   0.919  -0.033  0.00  0.00    +0.157 C 
ATOM     14  O   UNL     1      10.654   0.722  -0.313  0.00  0.00    -0.288 OA
ATOM     15  C   UNL     1       7.161   1.731   0.037  0.00  0.00    +0.114 C 
ENDROOT
BRANCH   8  16
ATOM     16  C   UNL     1       5.960   5.283   0.082  0.00  0.00    +0.025 A 
ATOM     17  C   UNL     1       4.965   6.041  -0.719  0.00  0.00    +0.012 A 
ATOM     18  C   UNL     1       5.054   7.480  -0.891  0.00  0.00    +0.001 A 
ATOM     19  C   UNL     1       6.042   8.152  -0.281  0.00  0.00    +0.004 A 
ATOM     20  C   UNL     1       6.971   7.473   0.601  0.00  0.00    +0.046 A 
ATOM     21  C   UNL     1       6.956   6.141   0.784  0.00  0.00    +0.125 A 
BRANCH  21  22
ATOM     22  O   UNL     1       7.739   5.611   1.792  0.00  0.00    -0.506 OA
ATOM     23  H   UNL     1       7.622   4.646   1.822  0.00  0.00    +0.292 HD
ENDBRANCH  21  22
ENDBRANCH   8  16
BRANCH   4  24
ATOM     24  O   UNL     1       1.300   0.644   0.244  0.00  0.00    -0.503 OA
ATOM     25  H   UNL     1       0.552   1.266   0.329  0.00  0.00    +0.292 HD
ENDBRANCH   4  24
BRANCH   5  26
ATOM     26  O   UNL     1       1.001   3.329   0.423  0.00  0.00    -0.503 OA
ATOM     27  H   UNL     1       1.073   4.296   0.495  0.00  0.00    +0.292 HD
ENDBRANCH   5  26
BRANCH  11  28
ATOM     28  O   UNL     1      10.840   3.390  -0.707  0.00  0.00    -0.503 OA
ATOM     29  H   UNL     1      11.379   2.560  -0.684  0.00  0.00    +0.292 HD
ENDBRANCH  11  28
TORSDOF 5
