REMARK  Name = min_compound982.pdb
REMARK  0 active torsions:
REMARK  status: ('A' for Active; 'I' for Inactive)
REMARK                            x       y       z     vdW  Elec       q    Type
REMARK                         _______ _______ _______ _____ _____    ______ ____
ROOT
ATOM      1  C   UNL     1       5.579  -0.120   0.344  0.00  0.00    +0.040 C 
ATOM      2  C   UNL     1       4.585   0.982   0.110  0.00  0.00    -0.040 A 
ATOM      3  C   UNL     1       3.235   0.582  -0.042  0.00  0.00    +0.004 A 
ATOM      4  C   UNL     1       2.226   1.498  -0.307  0.00  0.00    +0.000 A 
ATOM      5  C   UNL     1       2.545   2.837  -0.409  0.00  0.00    +0.000 A 
ATOM      6  C   UNL     1       3.871   3.246  -0.240  0.00  0.00    +0.008 A 
ATOM      7  C   UNL     1       4.942   2.342   0.013  0.00  0.00    +0.004 A 
ATOM      8  C   UNL     1       6.361   2.940   0.227  0.00  0.00    +0.168 C 
ATOM      9  C   UNL     1       6.680   4.029  -0.836  0.00  0.00    +0.099 C 
ATOM     10  C   UNL     1       6.521   5.299  -0.083  0.00  0.00    +0.034 C 
ATOM     11  C   UNL     1       6.549   6.548  -0.563  0.00  0.00    +0.019 C 
ATOM     12  C   UNL     1       6.286   4.997   1.341  0.00  0.00    +0.336 C 
ATOM     13  O   UNL     1       6.174   5.815   2.236  0.00  0.00    -0.245 OA
ATOM     14  O   UNL     1       6.234   3.651   1.492  0.00  0.00    -0.445 OA
ATOM     15  C   UNL     1       7.643   2.073   0.361  0.00  0.00    +0.004 A 
ATOM     16  C   UNL     1       8.789   2.681   0.947  0.00  0.00    +0.008 A 
ATOM     17  C   UNL     1      10.039   2.060   0.989  0.00  0.00    +0.000 A 
ATOM     18  C   UNL     1      10.194   0.798   0.445  0.00  0.00    +0.000 A 
ATOM     19  C   UNL     1       9.094   0.160  -0.115  0.00  0.00    +0.004 A 
ATOM     20  C   UNL     1       7.821   0.774  -0.152  0.00  0.00    -0.040 A 
ATOM     21  C   UNL     1       6.689  -0.051  -0.691  0.00  0.00    +0.040 C 
ENDROOT
TORSDOF 0
