REMARK  Name = min_compound938.pdb
REMARK  11 active torsions:
REMARK  status: ('A' for Active; 'I' for Inactive)
REMARK    1  A    between atoms: _1  and  _19
REMARK    2  A    between atoms: _3  and  _6
REMARK    3  A    between atoms: _5  and  _18
REMARK    4  A    between atoms: _7  and  _13
REMARK    5  A    between atoms: _9  and  _17
REMARK    6  A    between atoms: _11  and  _20
REMARK    7  A    between atoms: _12  and  _14
REMARK    8  A    between atoms: _13  and  _15
REMARK    9  A    between atoms: _15  and  _16
REMARK   10  A    between atoms: _19  and  _21
REMARK   11  A    between atoms: _21  and  _22
REMARK                            x       y       z     vdW  Elec       q    Type
REMARK                         _______ _______ _______ _____ _____    ______ ____
ROOT
ATOM      1  C   UNL     1       2.728  -7.276   0.000  0.00  0.00    -0.038 A 
ATOM      2  C   UNL     1       3.874  -6.487  -0.258  0.00  0.00    +0.004 A 
ATOM      3  C   UNL     1       3.851  -5.051  -0.342  0.00  0.00    +0.004 A 
ATOM      4  C   UNL     1       2.728  -4.276   0.000  0.00  0.00    -0.047 A 
ATOM      5  C   UNL     1       2.728  -2.776   0.000  0.00  0.00    +0.044 C 
ATOM      6  C   UNL     1       1.632  -5.095   0.415  0.00  0.00    -0.040 A 
ATOM      7  C   UNL     1       0.983  -4.575   1.707  0.00  0.00    +0.044 C 
ATOM      8  C   UNL     1       1.493  -6.545   0.111  0.00  0.00    -0.011 A 
ENDROOT
BRANCH   8   9
ATOM      9  C   UNL     1       0.068  -7.247  -0.086  0.00  0.00    -0.011 A 
ATOM     10  C   UNL     1      -0.064  -8.703  -0.390  0.00  0.00    -0.040 A 
ATOM     11  C   UNL     1       0.613  -9.226  -1.670  0.00  0.00    +0.044 C 
ATOM     12  C   UNL     1      -1.170  -9.526   0.000  0.00  0.00    -0.047 A 
ATOM     13  C   UNL     1      -1.170 -11.026   0.000  0.00  0.00    +0.044 C 
ATOM     14  C   UNL     1      -2.317  -8.765   0.247  0.00  0.00    +0.004 A 
ATOM     15  C   UNL     1      -2.336  -7.339   0.135  0.00  0.00    +0.004 A 
ATOM     16  C   UNL     1      -1.170  -6.526   0.000  0.00  0.00    -0.038 A 
BRANCH  16  17
ATOM     17  C   UNL     1      -1.170  -5.026   0.000  0.00  0.00    +0.050 C 
BRANCH  17  18
ATOM     18  C   UNL     1      -2.201  -4.774   1.123  0.00  0.00    +0.082 C 
BRANCH  18  19
ATOM     19  N   UNL     1      -3.173  -4.506   2.173  0.00  0.00    -0.330 NA
ATOM     20  H   UNL     1      -4.038  -5.007   1.971  0.00  0.00    +0.118 HD
ATOM     21  H   UNL     1      -2.800  -4.819   3.069  0.00  0.00    +0.118 HD
ENDBRANCH  18  19
ENDBRANCH  17  18
ENDBRANCH  16  17
ENDBRANCH   8   9
BRANCH   1  22
ATOM     22  C   UNL     1       2.728  -8.776   0.000  0.00  0.00    +0.050 C 
BRANCH  22  23
ATOM     23  C   UNL     1       4.027  -9.526   0.000  0.00  0.00    +0.082 C 
BRANCH  23  24
ATOM     24  N   UNL     1       5.326 -10.276   0.000  0.00  0.00    -0.330 NA
ATOM     25  H   UNL     1       5.850 -10.048  -0.845  0.00  0.00    +0.118 HD
ATOM     26  H   UNL     1       5.872 -10.011   0.820  0.00  0.00    +0.118 HD
ENDBRANCH  23  24
ENDBRANCH  22  23
ENDBRANCH   1  22
TORSDOF 7
