REMARK  Name = min_compound977.pdb
REMARK  10 active torsions:
REMARK  status: ('A' for Active; 'I' for Inactive)
REMARK    1  A    between atoms: _7  and  _9
REMARK    2  A    between atoms: _9  and  _10
REMARK    3  A    between atoms: _10  and  _11
REMARK    4  A    between atoms: _10  and  _12
REMARK    5  A    between atoms: _12  and  _13
REMARK    6  A    between atoms: _13  and  _14
REMARK    7  A    between atoms: _14  and  _15
REMARK    8  A    between atoms: _15  and  _16
REMARK    9  A    between atoms: _16  and  _17
REMARK   10  A    between atoms: _18  and  _20
REMARK                            x       y       z     vdW  Elec       q    Type
REMARK                         _______ _______ _______ _____ _____    ______ ____
ROOT
ATOM      1  C   UNL     1      -4.782   2.746  -1.804  0.00  0.00    +0.009 A 
ATOM      2  C   UNL     1      -3.501   2.907  -1.112  0.00  0.00    +0.019 A 
ATOM      3  C   UNL     1      -2.950   4.095  -0.761  0.00  0.00    +0.319 C 
ATOM      4  O   UNL     1      -1.754   4.097  -0.037  0.00  0.00    -0.195 OA
ATOM      5  O   UNL     1      -0.877   3.040  -0.575  0.00  0.00    -0.195 OA
ATOM      6  C   UNL     1      -1.498   1.808  -0.364  0.00  0.00    +0.316 C 
ATOM      7  C   UNL     1      -2.810   1.683  -0.656  0.00  0.00    +0.018 A 
ATOM      8  C   UNL     1      -3.614   0.466  -0.511  0.00  0.00    +0.009 A 
ATOM      9  C   UNL     1      -4.862   0.433  -1.018  0.00  0.00    +0.000 A 
ATOM     10  C   UNL     1      -5.421   1.564  -1.747  0.00  0.00    +0.000 A 
ENDROOT
BRANCH   6  11
ATOM     11  O   UNL     1      -0.687   0.762   0.020  0.00  0.00    -0.361 OA
ATOM     12  H   UNL     1      -1.173  -0.068  -0.101  0.00  0.00    +0.213 HD
ENDBRANCH   6  11
BRANCH   3  13
ATOM     13  O   UNL     1      -3.605   5.322  -0.888  0.00  0.00    -0.342 OA
BRANCH  13  14
ATOM     14  C   UNL     1      -4.922   5.524   0.000  0.00  0.00    +0.119 C 
ATOM     15  C   UNL     1      -4.459   5.448   1.531  0.00  0.00    +0.038 C 
BRANCH  14  16
ATOM     16  C   UNL     1      -4.922   7.024   0.000  0.00  0.00    +0.031 C 
BRANCH  16  17
ATOM     17  C   UNL     1      -6.300   7.153  -0.836  0.00  0.00    +0.002 C 
BRANCH  17  18
ATOM     18  C   UNL     1      -7.528   6.626  -0.080  0.00  0.00    +0.000 C 
BRANCH  18  19
ATOM     19  C   UNL     1      -8.819   7.263  -0.603  0.00  0.00    -0.000 C 
BRANCH  19  20
ATOM     20  C   UNL     1     -10.056   6.550  -0.058  0.00  0.00    -0.003 C 
ATOM     21  C   UNL     1     -11.327   7.323  -0.373  0.00  0.00    +0.004 C 
ENDBRANCH  19  20
ENDBRANCH  18  19
ENDBRANCH  17  18
ENDBRANCH  16  17
ENDBRANCH  14  16
ENDBRANCH  13  14
ENDBRANCH   3  13
TORSDOF 8
