REMARK  Name = min_compound966.pdb
REMARK  2 active torsions:
REMARK  status: ('A' for Active; 'I' for Inactive)
REMARK    1  A    between atoms: _7  and  _21
REMARK    2  A    between atoms: _21  and  _22
REMARK                            x       y       z     vdW  Elec       q    Type
REMARK                         _______ _______ _______ _____ _____    ______ ____
ROOT
ATOM      1  C   UNL     1      -0.259   7.529   0.057  0.00  0.00    +0.001 A 
ATOM      2  C   UNL     1      -1.068   6.406   0.110  0.00  0.00    +0.002 A 
ATOM      3  C   UNL     1      -0.514   5.121   0.119  0.00  0.00    +0.026 A 
ATOM      4  C   UNL     1       0.886   4.971   0.068  0.00  0.00    +0.050 A 
ATOM      5  N   UNL     1       1.715   3.862   0.050  0.00  0.00    -0.340 N 
ATOM      6  C   UNL     1       3.052   4.260   0.042  0.00  0.00    +0.052 A 
ATOM      7  C   UNL     1       4.235   3.491   0.060  0.00  0.00    +0.028 A 
ATOM      8  C   UNL     1       5.470   4.143   0.042  0.00  0.00    +0.030 A 
ATOM      9  C   UNL     1       5.512   5.532   0.009  0.00  0.00    +0.073 A 
ATOM     10  N   UNL     1       6.721   6.253  -0.006  0.00  0.00    -0.313 N 
ATOM     11  C   UNL     1       8.021   5.809   0.003  0.00  0.00    +0.092 A 
ATOM     12  C   UNL     1       8.852   6.912  -0.017  0.00  0.00    +0.020 A 
ATOM     13  C   UNL     1       8.030   8.064  -0.038  0.00  0.00    +0.029 A 
ATOM     14  C   UNL     1       6.722   7.627  -0.032  0.00  0.00    +0.065 A 
ATOM     15  C   UNL     1       5.479   8.340  -0.045  0.00  0.00    +0.137 A 
ATOM     16  N   UNL     1       4.336   7.727  -0.034  0.00  0.00    -0.251 NA
ATOM     17  C   UNL     1       4.336   6.311  -0.006  0.00  0.00    +0.097 A 
ATOM     18  C   UNL     1       3.079   5.657   0.014  0.00  0.00    +0.035 A 
ATOM     19  C   UNL     1       1.718   6.100   0.026  0.00  0.00    +0.010 A 
ATOM     20  C   UNL     1       1.128   7.386   0.018  0.00  0.00    +0.010 A 
ENDROOT
BRANCH   5  21
ATOM     21  C   UNL     1       1.363   2.448   0.075  0.00  0.00    +0.119 C 
ATOM     22  C   UNL     1      -0.048   2.009  -0.272  0.00  0.00    +0.027 C 
ENDBRANCH   5  21
TORSDOF 1
