REMARK  Name = min_compound5.pdb
REMARK  5 active torsions:
REMARK  status: ('A' for Active; 'I' for Inactive)
REMARK    1  A    between atoms: _6  and  _7
REMARK    2  A    between atoms: _7  and  _8
REMARK    3  A    between atoms: _7  and  _10
REMARK    4  A    between atoms: _8  and  _9
REMARK    5  A    between atoms: _10  and  _11
REMARK                            x       y       z     vdW  Elec       q    Type
REMARK                         _______ _______ _______ _____ _____    ______ ____
ROOT
ATOM      1  H   UNL     1      -3.900  -3.513  -1.651  0.00  0.00    +0.166 HD
ATOM      2  N   UNL     1      -3.993  -4.135  -0.860  0.00  0.00    -0.348 N 
ATOM      3  C   UNL     1      -2.979  -4.511  -0.012  0.00  0.00    +0.110 A 
ATOM      4  N   UNL     1      -3.436  -5.314   0.927  0.00  0.00    -0.241 NA
ATOM      5  C   UNL     1      -4.773  -5.469   0.669  0.00  0.00    +0.130 A 
ATOM      6  C   UNL     1      -5.142  -4.740  -0.434  0.00  0.00    +0.104 A 
ENDROOT
BRANCH   3   7
ATOM      7  C   UNL     1      -1.561  -4.019  -0.182  0.00  0.00    +0.054 C 
BRANCH   7   8
ATOM      8  C   UNL     1      -1.370  -2.752   0.678  0.00  0.00    +0.008 C 
ATOM      9  C   UNL     1      -0.272  -1.819   0.186  0.00  0.00    +0.004 C 
ENDBRANCH   7   8
BRANCH   7  10
ATOM     10  C   UNL     1      -0.587  -5.170   0.152  0.00  0.00    +0.008 C 
ATOM     11  C   UNL     1       0.853  -4.937  -0.274  0.00  0.00    +0.004 C 
ENDBRANCH   7  10
ENDBRANCH   3   7
TORSDOF 3
