REMARK  Name = min_compound96.pdb
REMARK  7 active torsions:
REMARK  status: ('A' for Active; 'I' for Inactive)
REMARK    1  A    between atoms: _2  and  _5
REMARK    2  A    between atoms: _3  and  _8
REMARK    3  A    between atoms: _5  and  _7
REMARK    4  A    between atoms: _10  and  _11
REMARK    5  A    between atoms: _11  and  _12
REMARK    6  A    between atoms: _12  and  _13
REMARK    7  A    between atoms: _12  and  _14
REMARK                            x       y       z     vdW  Elec       q    Type
REMARK                         _______ _______ _______ _____ _____    ______ ____
ROOT
ATOM      1  C   UNL     1       2.857   4.396   0.242  0.00  0.00    +0.237 C 
ATOM      2  N   UNL     1       3.923   5.033  -0.336  0.00  0.00    -0.312 N 
ATOM      3  H   UNL     1       4.122   4.900  -1.319  0.00  0.00    +0.149 HD
ATOM      4  O   UNL     1       2.468   4.576   1.389  0.00  0.00    -0.271 OA
ENDROOT
BRANCH   1   6
ATOM      5  C   UNL     1       0.829   3.214  -0.621  0.00  0.00    +0.096 C 
ATOM      6  C   UNL     1       2.144   3.480  -0.665  0.00  0.00    +0.074 C 
BRANCH   5   7
ATOM      7  C   UNL     1      -0.284   3.720   0.209  0.00  0.00    +0.330 C 
ATOM      8  O   UNL     1      -1.439   3.526  -0.149  0.00  0.00    -0.246 OA
BRANCH   7   9
ATOM      9  O   UNL     1       0.008   4.361   1.346  0.00  0.00    -0.478 OA
ATOM     10  H   UNL     1       0.966   4.434   1.570  0.00  0.00    +0.295 HD
ENDBRANCH   7   9
ENDBRANCH   5   7
ENDBRANCH   1   6
BRANCH   2  11
ATOM     11  C   UNL     1       4.595   6.126   0.349  0.00  0.00    +0.107 C 
BRANCH  11  12
ATOM     12  C   UNL     1       4.024   7.520   0.000  0.00  0.00    -0.000 C 
ATOM     13  C   UNL     1       2.525   7.520   0.000  0.00  0.00    +0.009 C 
ATOM     14  C   UNL     1       4.634   8.050  -1.307  0.00  0.00    +0.009 C 
ENDBRANCH  11  12
ENDBRANCH   2  11
TORSDOF 5
