REMARK  Name = min_compound953.pdb
REMARK  4 active torsions:
REMARK  status: ('A' for Active; 'I' for Inactive)
REMARK    1  A    between atoms: _5  and  _14
REMARK    2  A    between atoms: _5  and  _15
REMARK    3  A    between atoms: _6  and  _13
REMARK    4  A    between atoms: _12  and  _16
REMARK                            x       y       z     vdW  Elec       q    Type
REMARK                         _______ _______ _______ _____ _____    ______ ____
ROOT
ATOM      1  C   UNL     1      -0.032  -5.823  -1.068  0.00  0.00    +0.304 C 
ATOM      2  O   UNL     1      -0.238  -6.455   0.117  0.00  0.00    -0.436 OA
ATOM      3  C   UNL     1      -0.624  -7.767  -0.280  0.00  0.00    +0.222 C 
ATOM      4  C   UNL     1      -1.978  -8.092   0.275  0.00  0.00    +0.214 C 
ATOM      5  C   UNL     1      -2.269  -9.479   0.815  0.00  0.00    +0.099 C 
ATOM      6  C   UNL     1      -3.668  -9.995   0.760  0.00  0.00    +0.044 C 
ATOM      7  C   UNL     1      -1.168 -10.487   1.026  0.00  0.00    +0.044 C 
ATOM      8  C   UNL     1       0.080 -10.245   0.152  0.00  0.00    -0.027 C 
ATOM      9  C   UNL     1      -0.176 -10.756  -1.277  0.00  0.00    +0.011 C 
ATOM     10  C   UNL     1       1.258 -11.056   0.733  0.00  0.00    +0.011 C 
ATOM     11  O   UNL     1      -2.105  -8.341   1.686  0.00  0.00    -0.359 OA
ATOM     12  C   UNL     1       0.468  -8.746   0.184  0.00  0.00    +0.079 C 
ATOM     13  N   UNL     1      -0.718  -7.722  -1.754  0.00  0.00    -0.222 N 
ATOM     14  H   UNL     1      -1.010  -8.454  -2.344  0.00  0.00    +0.172 HD
ATOM     15  N   UNL     1      -0.327  -6.485  -2.141  0.00  0.00    -0.131 NA
ATOM     16  N   UNL     1       0.398  -4.562  -1.019  0.00  0.00    -0.268 N 
ATOM     17  H   UNL     1      -0.186  -3.813  -1.278  0.00  0.00    +0.157 HD
ENDROOT
BRANCH  16  18
ATOM     18  C   UNL     1       1.677  -4.347  -0.597  0.00  0.00    +0.035 A 
ATOM     19  C   UNL     1       2.696  -5.317  -0.608  0.00  0.00    +0.023 A 
ATOM     20  C   UNL     1       3.999  -5.031  -0.188  0.00  0.00    +0.002 A 
ATOM     21  C   UNL     1       4.324  -3.751   0.250  0.00  0.00    +0.000 A 
ATOM     22  C   UNL     1       3.342  -2.764   0.262  0.00  0.00    +0.002 A 
ATOM     23  C   UNL     1       2.040  -3.063  -0.161  0.00  0.00    +0.023 A 
ENDBRANCH  16  18
TORSDOF 1
