REMARK  Name = min_compound979.pdb
REMARK  3 active torsions:
REMARK  status: ('A' for Active; 'I' for Inactive)
REMARK    1  A    between atoms: _12  and  _19
REMARK    2  A    between atoms: _14  and  _18
REMARK    3  A    between atoms: _19  and  _20
REMARK                            x       y       z     vdW  Elec       q    Type
REMARK                         _______ _______ _______ _____ _____    ______ ____
ROOT
ATOM      1  C   UNL     1       9.811   3.693   0.362  0.00  0.00    +0.189 C 
ATOM      2  O   UNL     1       9.664   4.787   0.973  0.00  0.00    -0.287 OA
ATOM      3  C   UNL     1      11.107   3.026   0.080  0.00  0.00    +0.025 A 
ATOM      4  C   UNL     1      12.341   3.536   0.502  0.00  0.00    +0.012 A 
ATOM      5  C   UNL     1      13.527   2.865   0.200  0.00  0.00    +0.001 A 
ATOM      6  C   UNL     1      13.488   1.680  -0.534  0.00  0.00    +0.000 A 
ATOM      7  C   UNL     1      12.263   1.165  -0.965  0.00  0.00    +0.004 A 
ATOM      8  C   UNL     1      11.071   1.830  -0.649  0.00  0.00    -0.036 A 
ATOM      9  C   UNL     1       9.722   1.327  -1.106  0.00  0.00    +0.040 C 
ATOM     10  C   UNL     1       8.544   1.500   0.000  0.00  0.00    +0.043 C 
ATOM     11  C   UNL     1       8.544   3.000   0.000  0.00  0.00    +0.001 C 
ATOM     12  C   UNL     1       7.392   3.668  -0.260  0.00  0.00    +0.015 C 
ENDROOT
BRANCH  12  13
ATOM     13  C   UNL     1       6.045   3.121  -0.501  0.00  0.00    -0.021 A 
ATOM     14  C   UNL     1       5.795   1.996  -1.292  0.00  0.00    +0.008 A 
ATOM     15  C   UNL     1       4.491   1.525  -1.464  0.00  0.00    +0.004 A 
ATOM     16  C   UNL     1       3.415   2.195  -0.878  0.00  0.00    +0.045 A 
ATOM     17  C   UNL     1       3.639   3.346  -0.124  0.00  0.00    +0.121 A 
ATOM     18  C   UNL     1       4.951   3.795   0.063  0.00  0.00    +0.053 A 
BRANCH  17  19
ATOM     19  O   UNL     1       2.677   4.109   0.480  0.00  0.00    -0.495 OA
ATOM     20  C   UNL     1       1.324   3.767   0.213  0.00  0.00    +0.277 C 
ENDBRANCH  17  19
ENDBRANCH  12  13
TORSDOF 2
