REMARK  Name = min_compound934.pdb
REMARK  3 active torsions:
REMARK  status: ('A' for Active; 'I' for Inactive)
REMARK    1  A    between atoms: _3  and  _16
REMARK    2  A    between atoms: _5  and  _22
REMARK    3  A    between atoms: _7  and  _9
REMARK                            x       y       z     vdW  Elec       q    Type
REMARK                         _______ _______ _______ _____ _____    ______ ____
ROOT
ATOM      1  N   UNL     1      -9.082  -6.943   0.004  0.00  0.00    -0.172 NA
ATOM      2  C   UNL     1      -8.651  -8.217   0.000  0.00  0.00    +0.094 A 
ATOM      3  C   UNL     1      -7.224  -8.255  -0.003  0.00  0.00    +0.073 A 
ATOM      4  C   UNL     1      -6.812  -6.944  -0.001  0.00  0.00    +0.121 A 
ATOM      5  N   UNL     1      -7.961  -6.203   0.004  0.00  0.00    -0.263 N 
ATOM      6  H   UNL     1      -8.024  -5.188   0.007  0.00  0.00    +0.190 HD
ENDROOT
BRANCH   2   7
ATOM      7  C   UNL     1      -9.591  -9.347   0.000  0.00  0.00    +0.002 A 
ATOM      8  C   UNL     1     -10.977  -9.117   0.000  0.00  0.00    +0.010 A 
ATOM      9  C   UNL     1     -11.883 -10.181   0.000  0.00  0.00    +0.001 A 
ATOM     10  C   UNL     1     -11.417 -11.493   0.000  0.00  0.00    +0.000 A 
ATOM     11  C   UNL     1     -10.046 -11.741   0.000  0.00  0.00    +0.001 A 
ATOM     12  C   UNL     1      -9.139 -10.675   0.000  0.00  0.00    +0.010 A 
ENDBRANCH   2   7
BRANCH   4  13
ATOM     13  N   UNL     1      -5.535  -6.416  -0.002  0.00  0.00    -0.267 N 
ATOM     14  H   UNL     1      -4.773  -7.077  -0.007  0.00  0.00    +0.157 HD
ATOM     15  C   UNL     1      -5.317  -5.046   0.002  0.00  0.00    +0.249 C 
ATOM     16  O   UNL     1      -6.225  -4.216   0.006  0.00  0.00    -0.270 OA
BRANCH  15  17
ATOM     17  C   UNL     1      -3.894  -4.570   0.001  0.00  0.00    +0.037 A 
ATOM     18  C   UNL     1      -2.782  -5.426   0.003  0.00  0.00    +0.014 A 
ATOM     19  C   UNL     1      -1.484  -4.899   0.002  0.00  0.00    +0.021 A 
ATOM     20  C   UNL     1      -1.287  -3.520  -0.001  0.00  0.00    +0.041 A 
ATOM     21 CL   UNL     1       0.310  -2.884  -0.001  0.00  0.00    -0.084 Cl
ATOM     22  C   UNL     1      -2.378  -2.658  -0.002  0.00  0.00    +0.021 A 
ATOM     23  C   UNL     1      -3.675  -3.181  -0.001  0.00  0.00    +0.014 A 
ENDBRANCH  15  17
ENDBRANCH   4  13
TORSDOF 3
