REMARK  Name = min_compound940.pdb
REMARK  6 active torsions:
REMARK  status: ('A' for Active; 'I' for Inactive)
REMARK    1  A    between atoms: _3  and  _17
REMARK    2  A    between atoms: _5  and  _16
REMARK    3  A    between atoms: _8  and  _18
REMARK    4  A    between atoms: _10  and  _19
REMARK    5  A    between atoms: _11  and  _12
REMARK    6  A    between atoms: _15  and  _16
REMARK                            x       y       z     vdW  Elec       q    Type
REMARK                         _______ _______ _______ _____ _____    ______ ____
ROOT
ATOM      1  N   UNL     1       2.643  -1.064  -0.067  0.00  0.00    -0.251 NA
ATOM      2  C   UNL     1       2.684  -2.283  -0.540  0.00  0.00    +0.183 C 
ATOM      3  N   UNL     1       3.708  -3.155  -0.610  0.00  0.00    -0.290 N 
ATOM      4  H   UNL     1       3.625  -4.061  -0.986  0.00  0.00    +0.154 HD
ATOM      5  C   UNL     1       4.862  -2.658  -0.111  0.00  0.00    +0.131 A 
ATOM      6  N   UNL     1       6.125  -3.182  -0.050  0.00  0.00    -0.309 N 
ATOM      7  C   UNL     1       6.917  -2.199   0.493  0.00  0.00    +0.201 A 
ATOM      8  N   UNL     1       6.243  -1.098   0.786  0.00  0.00    -0.235 NA
ATOM      9  C   UNL     1       4.959  -1.406   0.431  0.00  0.00    +0.120 A 
ATOM     10  C   UNL     1       3.808  -0.583   0.474  0.00  0.00    +0.224 C 
ENDROOT
BRANCH   6  11
ATOM     11  C   UNL     1       6.507  -4.459  -0.608  0.00  0.00    +0.144 C 
ATOM     12  C   UNL     1       7.993  -4.854  -0.750  0.00  0.00    +0.174 C 
ATOM     13  C   UNL     1       7.923  -6.401  -0.870  0.00  0.00    +0.173 C 
ATOM     14  C   UNL     1       6.716  -6.741  -0.040  0.00  0.00    -0.016 C 
ATOM     15  C   UNL     1       5.952  -5.651   0.138  0.00  0.00    +0.004 C 
BRANCH  12  16
ATOM     16  O   UNL     1       8.814  -4.521   0.387  0.00  0.00    -0.387 OA
ATOM     17  H   UNL     1       9.392  -5.302   0.510  0.00  0.00    +0.210 HD
ENDBRANCH  12  16
BRANCH  13  18
ATOM     18  O   UNL     1       9.124  -6.970  -0.352  0.00  0.00    -0.385 OA
ATOM     19  H   UNL     1       8.840  -7.713   0.226  0.00  0.00    +0.210 HD
ENDBRANCH  13  18
BRANCH  14  20
ATOM     20  C   UNL     1       6.394  -8.117   0.407  0.00  0.00    +0.189 C 
BRANCH  20  21
ATOM     21  O   UNL     1       7.564  -8.701   0.970  0.00  0.00    -0.391 OA
ATOM     22  H   UNL     1       7.260  -9.489   1.454  0.00  0.00    +0.210 HD
ENDBRANCH  20  21
ENDBRANCH  14  20
ENDBRANCH   6  11
BRANCH  10  23
ATOM     23  N   UNL     1       3.860   0.805   0.759  0.00  0.00    -0.304 NA
ATOM     24  H   UNL     1       3.186   1.253   0.156  0.00  0.00    +0.121 HD
ATOM     25  H   UNL     1       4.812   1.117   0.607  0.00  0.00    +0.121 HD
ENDBRANCH  10  23
TORSDOF 6
