REMARK  Name = min_compound990.pdb
REMARK  2 active torsions:
REMARK  status: ('A' for Active; 'I' for Inactive)
REMARK    1  A    between atoms: _3  and  _24
REMARK    2  A    between atoms: _10  and  _24
REMARK                            x       y       z     vdW  Elec       q    Type
REMARK                         _______ _______ _______ _____ _____    ______ ____
ROOT
ATOM      1  S   UNL     1       2.619   5.957  -0.877  0.00  0.00    +0.061 S 
ATOM      2  O   UNL     1       2.830   5.100  -2.023  0.00  0.00    -0.153 OA
ATOM      3  O   UNL     1       1.795   7.143  -0.994  0.00  0.00    -0.153 OA
ENDROOT
BRANCH   1   4
ATOM      4  C   UNL     1       4.203   6.529  -0.298  0.00  0.00    +0.106 A 
ATOM      5  C   UNL     1       5.381   5.891  -0.687  0.00  0.00    +0.034 A 
ATOM      6  C   UNL     1       6.622   6.402  -0.270  0.00  0.00    -0.025 A 
ATOM      7  C   UNL     1       7.888   5.693  -0.680  0.00  0.00    +0.038 C 
ATOM      8  C   UNL     1       9.089   6.149   0.143  0.00  0.00    +0.023 C 
ATOM      9  C   UNL     1       9.094   7.667   0.235  0.00  0.00    +0.102 C 
ATOM     10  N   UNL     1       7.898   8.126   0.930  0.00  0.00    -0.344 N 
ATOM     11  H   UNL     1       7.859   9.135   1.046  0.00  0.00    +0.146 HD
ATOM     12  C   UNL     1       6.681   7.601   0.467  0.00  0.00    +0.030 A 
ATOM     13  C   UNL     1       5.486   8.210   0.868  0.00  0.00    +0.025 A 
ATOM     14  C   UNL     1       4.252   7.688   0.480  0.00  0.00    +0.030 A 
ENDBRANCH   1   4
BRANCH   1  24
ATOM     15  C   UNL     1       2.218   3.582   0.554  0.00  0.00    +0.083 C 
ATOM     16  C   UNL     1       0.924   2.900   0.000  0.00  0.00    +0.008 C 
ATOM     17  C   UNL     1       0.924   1.399   0.000  0.00  0.00    +0.005 C 
ATOM     18  C   UNL     1       2.229   1.125   0.903  0.00  0.00    +0.000 C 
ATOM     19  C   UNL     1       3.522   1.399   0.000  0.00  0.00    +0.002 C 
ATOM     20  C   UNL     1      -0.375   3.650   0.000  0.00  0.00    +0.006 C 
ATOM     21  C   UNL     1      -0.375   5.149   0.000  0.00  0.00    +0.017 C 
ATOM     22  C   UNL     1       0.788   5.428   1.059  0.00  0.00    +0.110 C 
ATOM     23  C   UNL     1       3.522   2.900   0.000  0.00  0.00    +0.021 C 
ATOM     24  N   UNL     1       2.076   5.040   0.437  0.00  0.00    -0.173 NA
ENDBRANCH   1  24
TORSDOF 2
