REMARK  Name = min_compound920.pdb
REMARK  4 active torsions:
REMARK  status: ('A' for Active; 'I' for Inactive)
REMARK    1  A    between atoms: _6  and  _16
REMARK    2  A    between atoms: _10  and  _11
REMARK    3  A    between atoms: _12  and  _18
REMARK    4  A    between atoms: _16  and  _17
REMARK                            x       y       z     vdW  Elec       q    Type
REMARK                         _______ _______ _______ _____ _____    ______ ____
ROOT
ATOM      1  N   UNL     1       0.433  -0.362   0.056  0.00  0.00    -0.307 N 
ATOM      2  H   UNL     1       0.363   0.558   0.467  0.00  0.00    +0.149 HD
ATOM      3  C   UNL     1       1.679  -0.932  -0.121  0.00  0.00    +0.254 C 
ATOM      4  O   UNL     1       1.782  -2.135  -0.355  0.00  0.00    -0.270 OA
ENDROOT
BRANCH   3   5
ATOM      5  C   UNL     1       2.813  -0.047   0.018  0.00  0.00    +0.117 A 
ATOM      6  C   UNL     1       2.986   1.333  -0.014  0.00  0.00    +0.081 A 
ATOM      7  C   UNL     1       1.977   2.396  -0.249  0.00  0.00    +0.069 C 
ATOM      8  N   UNL     1       4.298   1.757   0.188  0.00  0.00    -0.146 NA
ATOM      9  N   UNL     1       5.131   0.746   0.346  0.00  0.00    -0.110 NA
ATOM     10  S   UNL     1       4.374  -0.736   0.253  0.00  0.00    +0.041 S 
ENDBRANCH   3   5
BRANCH   1  11
ATOM     11  C   UNL     1      -0.755  -1.189   0.065  0.00  0.00    +0.144 C 
BRANCH  11  16
ATOM     12  C   UNL     1      -4.581   0.871  -0.033  0.00  0.00    +0.004 A 
ATOM     13  C   UNL     1      -4.518  -0.519  -0.097  0.00  0.00    +0.020 A 
ATOM     14  C   UNL     1      -3.280  -1.173  -0.063  0.00  0.00    +0.048 A 
ATOM     15 CL   UNL     1      -3.303  -2.902  -0.130  0.00  0.00    -0.083 Cl
ATOM     16  C   UNL     1      -2.073  -0.453   0.031  0.00  0.00    +0.023 A 
ATOM     17  C   UNL     1      -2.174   0.942   0.109  0.00  0.00    +0.129 A 
ATOM     18  F   UNL     1      -1.073   1.697   0.238  0.00  0.00    -0.205 F 
ATOM     19  C   UNL     1      -3.403   1.602   0.073  0.00  0.00    +0.039 A 
ENDBRANCH  11  16
ENDBRANCH   1  11
TORSDOF 3
