REMARK  Name = min_compound97.pdb
REMARK  4 active torsions:
REMARK  status: ('A' for Active; 'I' for Inactive)
REMARK    1  A    between atoms: _5  and  _12
REMARK    2  A    between atoms: _5  and  _14
REMARK    3  A    between atoms: _9  and  _10
REMARK    4  A    between atoms: _14  and  _15
REMARK                            x       y       z     vdW  Elec       q    Type
REMARK                         _______ _______ _______ _____ _____    ______ ____
ROOT
ATOM      1  C   UNL     1       5.651  -1.233   0.950  0.00  0.00    +0.074 C 
ATOM      2  C   UNL     1       5.468  -0.082   0.289  0.00  0.00    +0.245 C 
ATOM      3  O   UNL     1       6.557   0.562  -0.300  0.00  0.00    -0.269 OA
ATOM      4  O   UNL     1       7.717   0.489   0.623  0.00  0.00    -0.247 OA
ATOM      5  C   UNL     1       8.001  -0.853   0.887  0.00  0.00    +0.332 C 
ATOM      6  C   UNL     1       6.998  -1.719   1.086  0.00  0.00    +0.096 C 
ENDROOT
BRANCH   2   7
ATOM      7  N   UNL     1       4.216   0.437   0.091  0.00  0.00    -0.237 N 
ATOM      8  H   UNL     1       3.441  -0.036   0.530  0.00  0.00    +0.159 HD
ATOM      9  C   UNL     1       3.921   1.644  -0.481  0.00  0.00    +0.304 C 
ATOM     10  O   UNL     1       4.698   2.499  -0.876  0.00  0.00    -0.253 OA
ATOM     11  N   UNL     1       2.575   1.852  -0.565  0.00  0.00    -0.313 N 
ATOM     12  H   UNL     1       2.007   1.065  -0.845  0.00  0.00    +0.146 HD
ATOM     13  H   UNL     1       2.353   2.711  -1.054  0.00  0.00    +0.146 HD
ENDBRANCH   2   7
BRANCH   5  14
ATOM     14  O   UNL     1       9.300  -1.243   1.136  0.00  0.00    -0.457 OA
BRANCH  14  15
ATOM     15  C   UNL     1      10.158  -1.021   0.017  0.00  0.00    +0.259 C 
BRANCH  15  16
ATOM     16  C   UNL     1      10.400  -2.346  -0.648  0.00  0.00    +0.006 C 
ATOM     17  C   UNL     1      11.567  -3.004  -0.642  0.00  0.00    +0.007 C 
ENDBRANCH  15  16
ENDBRANCH  14  15
ENDBRANCH   5  14
TORSDOF 4
