REMARK  Name = min_compound914.pdb
REMARK  1 active torsions:
REMARK  status: ('A' for Active; 'I' for Inactive)
REMARK    1  A    between atoms: _7  and  _15
REMARK                            x       y       z     vdW  Elec       q    Type
REMARK                         _______ _______ _______ _____ _____    ______ ____
ROOT
ATOM      1  N   UNL     1       4.607   4.185  -0.001  0.00  0.00    -0.269 N 
ATOM      2  H   UNL     1       5.187   3.361   0.000  0.00  0.00    +0.156 HD
ATOM      3  C   UNL     1       5.269   5.410  -0.001  0.00  0.00    +0.310 C 
ATOM      4  N   UNL     1       6.637   5.214  -0.001  0.00  0.00    -0.248 N 
ATOM      5  H   UNL     1       7.030   4.291  -0.002  0.00  0.00    +0.158 HD
ATOM      6  C   UNL     1       7.531   6.249  -0.001  0.00  0.00    +0.165 A 
ATOM      7  S   UNL     1       9.165   5.742  -0.002  0.00  0.00    -0.060 S 
ATOM      8  C   UNL     1       9.655   7.386  -0.001  0.00  0.00    +0.068 A 
ATOM      9  C   UNL     1       8.540   8.197   0.000  0.00  0.00    +0.120 A 
ATOM     10  N   UNL     1       7.326   7.539   0.000  0.00  0.00    -0.233 NA
ATOM     11  O   UNL     1       4.712   6.498   0.000  0.00  0.00    -0.252 OA
ENDROOT
BRANCH   1  15
ATOM     12  C   UNL     1       0.472   3.324   0.000  0.00  0.00    +0.020 A 
ATOM     13  C   UNL     1       1.426   2.312   0.000  0.00  0.00    +0.043 A 
ATOM     14  C   UNL     1       2.789   2.619   0.000  0.00  0.00    +0.043 A 
ATOM     15  C   UNL     1       3.214   3.955   0.000  0.00  0.00    +0.036 A 
ATOM     16  C   UNL     1       2.250   4.966  -0.001  0.00  0.00    +0.023 A 
ATOM     17 CL   UNL     1       0.925   0.665   0.000  0.00  0.00    -0.083 Cl
ATOM     18  C   UNL     1       0.886   4.653   0.000  0.00  0.00    +0.003 A 
ENDBRANCH   1  15
TORSDOF 1
