REMARK  Name = min_compound941.pdb
REMARK  4 active torsions:
REMARK  status: ('A' for Active; 'I' for Inactive)
REMARK    1  A    between atoms: _2  and  _14
REMARK    2  A    between atoms: _3  and  _15
REMARK    3  A    between atoms: _7  and  _16
REMARK    4  A    between atoms: _9  and  _11
REMARK                            x       y       z     vdW  Elec       q    Type
REMARK                         _______ _______ _______ _____ _____    ______ ____
ROOT
ATOM      1  C   UNL     1      -1.691  -1.796  -0.512  0.00  0.00    +0.166 C 
ATOM      2  C   UNL     1      -0.692  -2.635   0.303  0.00  0.00    +0.177 C 
ATOM      3  C   UNL     1       0.578  -1.781   0.234  0.00  0.00    +0.195 C 
ATOM      4  C   UNL     1      -0.071  -0.395   0.410  0.00  0.00    +0.255 C 
ATOM      5  O   UNL     1      -1.190  -0.439  -0.509  0.00  0.00    -0.347 OA
ENDROOT
BRANCH   4   6
ATOM      6  N   UNL     1       0.677   0.831   0.199  0.00  0.00    -0.270 N 
ATOM      7  C   UNL     1       1.894   0.883  -0.441  0.00  0.00    +0.096 A 
ATOM      8  C   UNL     1       2.533   2.037  -0.626  0.00  0.00    +0.061 A 
ATOM      9  C   UNL     1       1.854   3.240  -0.119  0.00  0.00    +0.123 A 
ATOM     10  N   UNL     1       2.432   4.467  -0.286  0.00  0.00    -0.343 N 
ATOM     11  H   UNL     1       1.988   5.180   0.286  0.00  0.00    +0.144 HD
ATOM     12  H   UNL     1       3.443   4.510  -0.266  0.00  0.00    +0.144 HD
ATOM     13  N   UNL     1       0.718   3.204   0.502  0.00  0.00    -0.178 NA
ATOM     14  C   UNL     1       0.082   2.001   0.702  0.00  0.00    +0.352 A 
ATOM     15  O   UNL     1      -0.973   1.959   1.333  0.00  0.00    -0.244 OA
ENDBRANCH   4   6
BRANCH   1  17
ATOM     16 CL   UNL     1      -3.792  -3.452   0.078  0.00  0.00    -0.123 Cl
ATOM     17  C   UNL     1      -3.107  -1.810   0.059  0.00  0.00    +0.143 C 
ENDBRANCH   1  17
BRANCH   2  18
ATOM     18  O   UNL     1      -0.510  -3.942  -0.222  0.00  0.00    -0.386 OA
ATOM     19  H   UNL     1      -1.363  -4.410  -0.166  0.00  0.00    +0.210 HD
ENDBRANCH   2  18
BRANCH   3  20
ATOM     20  O   UNL     1       1.226  -1.958  -1.036  0.00  0.00    -0.385 OA
ATOM     21  H   UNL     1       0.572  -1.777  -1.735  0.00  0.00    +0.210 HD
ENDBRANCH   3  20
TORSDOF 4
