REMARK  Name = min_compound951.pdb
REMARK  0 active torsions:
REMARK  status: ('A' for Active; 'I' for Inactive)
REMARK                            x       y       z     vdW  Elec       q    Type
REMARK                         _______ _______ _______ _____ _____    ______ ____
ROOT
ATOM      1 CL   UNL     1       2.319   2.603   0.000  0.00  0.00    -0.080 Cl
ATOM      2  C   UNL     1       3.799   1.691   0.000  0.00  0.00    +0.081 A 
ATOM      3  C   UNL     1       3.779   0.282   0.000  0.00  0.00    +0.081 A 
ATOM      4  C   UNL     1       4.982  -0.453   0.000  0.00  0.00    +0.088 A 
ATOM      5 CL   UNL     1       5.054  -2.175   0.000  0.00  0.00    -0.080 Cl
ATOM      6  C   UNL     1       6.176   0.268   0.000  0.00  0.00    +0.107 A 
ATOM      7  N   UNL     1       7.493  -0.101   0.000  0.00  0.00    -0.256 N 
ATOM      8  N   UNL     1       8.306   0.964   0.000  0.00  0.00    -0.067 NA
ATOM      9  N   UNL     1       7.543   2.049   0.000  0.00  0.00    -0.128 NA
ATOM     10  H   UNL     1       7.899  -1.031   0.000  0.00  0.00    +0.191 HD
ATOM     11  C   UNL     1       6.229   1.656   0.000  0.00  0.00    +0.134 A 
ATOM     12 CL   UNL     1       2.264  -0.575   0.000  0.00  0.00    -0.080 Cl
ATOM     13  C   UNL     1       5.026   2.374   0.000  0.00  0.00    +0.090 A 
ATOM     14 CL   UNL     1       5.208   4.077   0.000  0.00  0.00    -0.080 Cl
ENDROOT
TORSDOF 0
