REMARK  Name = min_compound971.pdb
REMARK  2 active torsions:
REMARK  status: ('A' for Active; 'I' for Inactive)
REMARK    1  A    between atoms: _7  and  _17
REMARK    2  A    between atoms: _9  and  _20
REMARK                            x       y       z     vdW  Elec       q    Type
REMARK                         _______ _______ _______ _____ _____    ______ ____
ROOT
ATOM      1  C   UNL     1       7.887   5.338   0.080  0.00  0.00    +0.137 C 
ATOM      2  N   UNL     1       7.098   4.129   0.053  0.00  0.00    -0.223 N 
ATOM      3  C   UNL     1       7.934   3.017  -0.202  0.00  0.00    +0.317 C 
ATOM      4  O   UNL     1       7.560   1.898  -0.516  0.00  0.00    -0.252 OA
ATOM      5  N   UNL     1       9.264   3.462  -0.050  0.00  0.00    -0.231 N 
ATOM      6  C   UNL     1      10.398   2.682  -0.138  0.00  0.00    +0.191 A 
ATOM      7  N   UNL     1      11.614   3.142   0.086  0.00  0.00    -0.126 NA
ATOM      8  N   UNL     1      12.583   2.168  -0.048  0.00  0.00    -0.148 NA
ATOM      9  C   UNL     1      12.057   1.008  -0.373  0.00  0.00    +0.183 A 
ATOM     10  S   UNL     1      10.355   1.022  -0.540  0.00  0.00    -0.038 S 
ATOM     11  C   UNL     1       5.723   4.132  -0.080  0.00  0.00    +0.211 A 
ATOM     12  N   UNL     1       4.844   3.064   0.041  0.00  0.00    -0.257 N 
ATOM     13  C   UNL     1       5.098   1.787   0.671  0.00  0.00    +0.158 C 
ATOM     14  C   UNL     1       3.605   3.545  -0.318  0.00  0.00    +0.369 A 
ATOM     15  C   UNL     1       3.745   4.895  -0.483  0.00  0.00    +0.219 A 
ATOM     16  N   UNL     1       5.053   5.251  -0.301  0.00  0.00    -0.215 NA
ATOM     17  C   UNL     1       9.295   4.850   0.342  0.00  0.00    +0.137 C 
ENDROOT
BRANCH  14  18
ATOM     18  N   UNL     1       2.423   2.767  -0.437  0.00  0.00    +0.100 N 
ATOM     19  O   UNL     1       2.552   1.547  -0.586  0.00  0.00    +0.043 OA
ATOM     20  O   UNL     1       1.353   3.384  -0.396  0.00  0.00    -0.575 OA
ENDBRANCH  14  18
TORSDOF 1
