REMARK  Name = min_compound915.pdb
REMARK  4 active torsions:
REMARK  status: ('A' for Active; 'I' for Inactive)
REMARK    1  A    between atoms: _4  and  _6
REMARK    2  A    between atoms: _7  and  _18
REMARK    3  A    between atoms: _10  and  _11
REMARK    4  A    between atoms: _18  and  _19
REMARK                            x       y       z     vdW  Elec       q    Type
REMARK                         _______ _______ _______ _____ _____    ______ ____
ROOT
ATOM      1  C   UNL     1       5.301  -3.716  -0.029  0.00  0.00    +0.222 C 
ATOM      2  N   UNL     1       6.087  -4.856  -0.163  0.00  0.00    -0.227 N 
ATOM      3  N   UNL     1       7.395  -4.517  -0.354  0.00  0.00    -0.269 N 
ATOM      4  H   UNL     1       8.134  -5.102  -0.640  0.00  0.00    +0.170 HD
ATOM      5  C   UNL     1       7.448  -3.219  -0.067  0.00  0.00    +0.092 C 
ATOM      6  C   UNL     1       6.180  -2.667   0.164  0.00  0.00    +0.001 C 
ENDROOT
BRANCH   2   7
ATOM      7  C   UNL     1       5.774  -6.240   0.009  0.00  0.00    +0.052 A 
ATOM      8  C   UNL     1       6.658  -7.204  -0.505  0.00  0.00    +0.044 A 
ATOM      9  C   UNL     1       6.388  -8.561  -0.331  0.00  0.00    +0.043 A 
ATOM     10 CL   UNL     1       7.466  -9.737  -0.978  0.00  0.00    -0.083 Cl
ATOM     11  C   UNL     1       5.254  -8.974   0.363  0.00  0.00    +0.020 A 
ATOM     12  C   UNL     1       4.389  -8.023   0.902  0.00  0.00    +0.003 A 
ATOM     13  C   UNL     1       4.652  -6.659   0.736  0.00  0.00    +0.025 A 
ENDBRANCH   2   7
BRANCH   1  17
ATOM     14  C   UNL     1       1.765  -2.989   0.033  0.00  0.00    +0.019 A 
ATOM     15  C   UNL     1       1.800  -4.106  -0.823  0.00  0.00    +0.019 A 
ATOM     16  C   UNL     1       3.119  -4.487  -0.936  0.00  0.00    +0.088 A 
ATOM     17  N   UNL     1       3.911  -3.660  -0.157  0.00  0.00    -0.330 N 
ATOM     18  C   UNL     1       3.064  -2.726   0.409  0.00  0.00    +0.088 A 
ENDBRANCH   1  17
BRANCH   6  19
ATOM     19  C   UNL     1       5.908  -1.286   0.380  0.00  0.00    +0.114 C 
BRANCH  19  20
ATOM     20  N   UNL     1       5.644   0.127   0.594  0.00  0.00    -0.326 NA
ATOM     21  H   UNL     1       4.839   0.411   0.035  0.00  0.00    +0.119 HD
ATOM     22  H   UNL     1       5.447   0.290   1.581  0.00  0.00    +0.119 HD
ENDBRANCH  19  20
ENDBRANCH   6  19
TORSDOF 4
