REMARK  Name = min_compound994.pdb
REMARK  6 active torsions:
REMARK  status: ('A' for Active; 'I' for Inactive)
REMARK    1  A    between atoms: _1  and  _12
REMARK    2  A    between atoms: _2  and  _21
REMARK    3  A    between atoms: _8  and  _23
REMARK    4  A    between atoms: _9  and  _23
REMARK    5  A    between atoms: _10  and  _24
REMARK    6  A    between atoms: _24  and  _26
REMARK                            x       y       z     vdW  Elec       q    Type
REMARK                         _______ _______ _______ _____ _____    ______ ____
ROOT
ATOM      1  C   UNL     1      -5.731  -5.826  -0.285  0.00  0.00    +0.134 A 
ATOM      2  C   UNL     1      -6.974  -6.516  -0.061  0.00  0.00    +0.028 A 
ATOM      3  C   UNL     1      -8.214  -5.827  -0.186  0.00  0.00    +0.012 A 
ATOM      4  C   UNL     1      -9.459  -6.435  -0.018  0.00  0.00    +0.001 A 
ATOM      5  C   UNL     1      -9.511  -7.777   0.293  0.00  0.00    +0.001 A 
ATOM      6  C   UNL     1      -8.319  -8.485   0.441  0.00  0.00    +0.012 A 
ATOM      7  C   UNL     1      -7.030  -7.902   0.281  0.00  0.00    +0.028 A 
ATOM      8  C   UNL     1      -5.851  -8.699   0.450  0.00  0.00    +0.132 A 
ATOM      9  C   UNL     1      -4.608  -8.013   0.217  0.00  0.00    +0.029 A 
ATOM     10  C   UNL     1      -3.403  -8.750   0.327  0.00  0.00    +0.013 A 
ATOM     11  C   UNL     1      -2.148  -8.233   0.027  0.00  0.00    +0.017 A 
ATOM     12  C   UNL     1      -2.036  -6.913  -0.378  0.00  0.00    +0.081 A 
ATOM     13  C   UNL     1      -3.178  -6.083  -0.388  0.00  0.00    +0.057 A 
ATOM     14  C   UNL     1      -4.517  -6.621  -0.146  0.00  0.00    +0.050 A 
ENDROOT
BRANCH  12  15
ATOM     15  C   UNL     1      -0.704  -6.508  -0.908  0.00  0.00    +0.339 C 
ATOM     16  O   UNL     1       0.351  -7.021  -0.558  0.00  0.00    -0.245 OA
BRANCH  15  17
ATOM     17  O   UNL     1      -0.768  -5.606  -1.916  0.00  0.00    -0.477 OA
ATOM     18  H   UNL     1      -1.673  -5.206  -1.940  0.00  0.00    +0.295 HD
ENDBRANCH  15  17
ENDBRANCH  12  15
BRANCH  13  19
ATOM     19  N   UNL     1      -3.055  -4.682  -0.740  0.00  0.00    -0.313 N 
ATOM     20  H   UNL     1      -4.059  -4.363  -0.779  0.00  0.00    +0.152 HD
BRANCH  19  21
ATOM     21  C   UNL     1      -2.305  -3.648  -0.113  0.00  0.00    +0.031 A 
ATOM     22  C   UNL     1      -2.496  -2.340  -0.590  0.00  0.00    +0.023 A 
ATOM     23  C   UNL     1      -1.724  -1.275  -0.121  0.00  0.00    +0.002 A 
ATOM     24  C   UNL     1      -0.735  -1.504   0.830  0.00  0.00    +0.000 A 
ATOM     25  C   UNL     1      -0.538  -2.793   1.321  0.00  0.00    +0.002 A 
ATOM     26  C   UNL     1      -1.322  -3.857   0.856  0.00  0.00    +0.023 A 
ENDBRANCH  19  21
ENDBRANCH  13  19
BRANCH   1  27
ATOM     27  O   UNL     1      -5.704  -4.573  -0.618  0.00  0.00    -0.505 OA
ATOM     28  H   UNL     1      -4.883  -4.143  -0.759  0.00  0.00    +0.292 HD
ENDBRANCH   1  27
BRANCH   8  29
ATOM     29  O   UNL     1      -5.906  -9.953   0.772  0.00  0.00    -0.506 OA
ATOM     30  H   UNL     1      -5.115 -10.445   0.875  0.00  0.00    +0.292 HD
ENDBRANCH   8  29
TORSDOF 6
