REMARK  Name = min_compound1.pdb
REMARK  3 active torsions:
REMARK  status: ('A' for Active; 'I' for Inactive)
REMARK    1  A    between atoms: _2  and  _7
REMARK    2  A    between atoms: _3  and  _9
REMARK    3  A    between atoms: _7  and  _8
REMARK                            x       y       z     vdW  Elec       q    Type
REMARK                         _______ _______ _______ _____ _____    ______ ____
ROOT
ATOM      1  N   UNK A   1      -4.470  -0.876  -0.127  0.00  0.00    -0.254 NA
ATOM      2  C   UNK A   0      -5.643  -1.546  -0.147  0.00  0.00    +0.111 A 
ATOM      3  C   UNK A   0      -5.745  -2.922  -0.032  0.00  0.00    +0.023 A 
ATOM      4  C   UNK A   1      -4.576  -3.662   0.113  0.00  0.00    +0.049 A 
ATOM      5  C   UNK A   1      -3.355  -2.996   0.133  0.00  0.00    +0.140 A 
ATOM      6  C   UNK A   1      -3.328  -1.605   0.002  0.00  0.00    +0.108 A 
ENDROOT
BRANCH   5   7
ATOM      7  O   UNK A   1      -2.187  -3.695   0.268  0.00  0.00    -0.505 OA
ATOM      8  H   UNK A   1      -2.401  -4.637   0.387  0.00  0.00    +0.292 HD
ENDBRANCH   5   7
BRANCH   6   9
ATOM      9  C   UNK A   1      -2.030  -0.828   0.059  0.00  0.00    +0.214 C 
BRANCH   9  10
ATOM     10  O   UNK A   1      -0.980  -1.397  -0.726  0.00  0.00    -0.389 OA
ATOM     11  H   UNK A   1      -1.049  -2.362  -0.598  0.00  0.00    +0.210 HD
ENDBRANCH   9  10
ENDBRANCH   6   9
TORSDOF 3
