REMARK  Name = min_compound955.pdb
REMARK  3 active torsions:
REMARK  status: ('A' for Active; 'I' for Inactive)
REMARK    1  A    between atoms: _11  and  _19
REMARK    2  A    between atoms: _12  and  _20
REMARK    3  A    between atoms: _15  and  _20
REMARK                            x       y       z     vdW  Elec       q    Type
REMARK                         _______ _______ _______ _____ _____    ______ ____
ROOT
ATOM      1  O   UNL     1      -7.351  -1.127   0.952  0.00  0.00    -0.619 OA
ATOM      2  N   UNL     1      -7.262  -2.345   0.571  0.00  0.00    -0.157 N 
ATOM      3  C   UNL     1      -8.422  -3.026   0.150  0.00  0.00    +0.292 A 
ATOM      4  C   UNL     1      -8.329  -4.363  -0.278  0.00  0.00    +0.292 A 
ATOM      5  C   UNL     1      -9.511  -5.041  -0.657  0.00  0.00    +0.086 A 
ATOM      6  C   UNL     1     -10.755  -4.411  -0.617  0.00  0.00    +0.007 A 
ATOM      7  C   UNL     1     -10.844  -3.087  -0.205  0.00  0.00    +0.007 A 
ATOM      8  N   UNL     1      -7.073  -5.004  -0.312  0.00  0.00    -0.157 N 
ATOM      9  O   UNL     1      -7.004  -6.227  -0.687  0.00  0.00    -0.619 OA
ATOM     10  C   UNL     1      -5.913  -4.325   0.089  0.00  0.00    +0.268 A 
ATOM     11  C   UNL     1      -9.690  -2.400   0.172  0.00  0.00    +0.086 A 
ATOM     12  C   UNL     1      -6.026  -3.004   0.587  0.00  0.00    +0.261 A 
ATOM     13  C   UNL     1      -4.875  -2.219   1.145  0.00  0.00    +0.130 C 
ENDROOT
BRANCH  10  14
ATOM     14  C   UNL     1      -4.658  -5.172   0.065  0.00  0.00    +0.150 C 
BRANCH  14  15
ATOM     15  C   UNL     1      -3.316  -4.508  -0.145  0.00  0.00    -0.037 A 
ATOM     16  C   UNL     1      -2.304  -4.662   0.818  0.00  0.00    +0.004 A 
ATOM     17  C   UNL     1      -1.051  -4.078   0.635  0.00  0.00    +0.000 A 
ATOM     18  C   UNL     1      -0.788  -3.343  -0.518  0.00  0.00    +0.000 A 
ATOM     19  C   UNL     1      -1.775  -3.201  -1.493  0.00  0.00    +0.000 A 
ATOM     20  C   UNL     1      -3.031  -3.788  -1.314  0.00  0.00    +0.004 A 
ENDBRANCH  14  15
ENDBRANCH  10  14
TORSDOF 2
