REMARK  13 active torsions:
REMARK  status: ('A' for Active; 'I' for Inactive)
REMARK    1  A    between atoms: C13_3  and  N_18 
REMARK    2  A    between atoms: C13_3  and  C4_37 
REMARK    3  A    between atoms: C20_9  and  O6_59 
REMARK    4  A    between atoms: C21_25  and  C24_12 
REMARK       I    between atoms: C24_12  and  N2_49 
REMARK    5  A    between atoms: C25_13  and  S_60 
REMARK    6  A    between atoms: C28_15  and  N3_50 
REMARK    7  A    between atoms: C31_17  and  C32_29 
REMARK    8  A    between atoms: C31_17  and  N3_50 
REMARK    9  A    between atoms: C18_23  and  N1_48 
REMARK   10  A    between atoms: C27_26  and  N4_51 
REMARK   11  A    between atoms: C37_34  and  O6_59 
REMARK   12  A    between atoms: C5_43  and  C7_45 
REMARK   13  A    between atoms: N2_49  and  S_60 
ROOT
HETATM    1  C19 LBM A   1       2.393  -1.880  -1.806  1.00  0.00     0.067 A 
HETATM    2  C20 LBM A   1       3.661  -1.423  -2.072  1.00  0.00     0.094 A 
HETATM    3  C22 LBM A   1       2.997   0.800  -1.537  1.00  0.00     0.022 A 
HETATM    4  C23 LBM A   1       1.724   0.343  -1.253  1.00  0.00     0.030 A 
HETATM    5  C18 LBM A   1       1.404  -1.017  -1.376  1.00  0.00     0.033 A 
HETATM    6  C21 LBM A   1       4.011  -0.079  -1.943  1.00  0.00     0.067 A 
ENDROOT
BRANCH   6   7
HETATM    7  C24 LBM A   1       5.381   0.457  -2.238  1.00  0.00     0.268 C 
HETATM    8  O   LBM A   1       6.393  -0.253  -2.212  1.00  0.00    -0.267 OA
HETATM    9  N2  LBM A   1       5.469   1.793  -2.577  1.00  0.00    -0.246 N 
HETATM   10  HN2 LBM A   1       4.675   2.397  -2.423  1.00  0.00     0.182 HD
BRANCH   9  11
HETATM   11  S   LBM A   1       6.812   2.403  -3.211  1.00  0.00     0.265 S 
HETATM   12  O1  LBM A   1       7.916   2.231  -2.289  1.00  0.00    -0.200 OA
HETATM   13  O2  LBM A   1       6.479   3.726  -3.638  1.00  0.00    -0.200 OA
BRANCH  11  14
HETATM   14  C25 LBM A   1       7.121   1.393  -4.651  1.00  0.00     0.082 A 
HETATM   15  C26 LBM A   1       6.543   1.777  -5.861  1.00  0.00     0.063 A 
HETATM   16  C27 LBM A   1       6.734   0.986  -6.978  1.00  0.00     0.130 A 
HETATM   17  C28 LBM A   1       7.506  -0.207  -6.956  1.00  0.00     0.061 A 
HETATM   18  C29 LBM A   1       8.050  -0.563  -5.706  1.00  0.00     0.033 A 
HETATM   19  C30 LBM A   1       7.879   0.239  -4.573  1.00  0.00     0.028 A 
BRANCH  16  20
HETATM   20  N4  LBM A   1       6.041   1.433  -8.181  1.00  0.00    -0.113 N 
HETATM   21  O4  LBM A   1       6.170   0.805  -9.214  1.00  0.00    -0.532 OA
HETATM   22  O5  LBM A   1       5.370   2.459  -8.105  1.00  0.00    -0.532 OA
ENDBRANCH  16  20
BRANCH  17  23
HETATM   23  N3  LBM A   1       7.719  -0.947  -8.105  1.00  0.00    -0.388 N 
HETATM   24  HN3 LBM A   1       7.333  -0.594  -8.969  1.00  0.00     0.159 HD
BRANCH  23  25
HETATM   25  C31 LBM A   1       8.462  -2.200  -8.157  1.00  0.00     0.124 C 
BRANCH  25  26
HETATM   26  C32 LBM A   1       8.871  -2.504  -9.591  1.00  0.00     0.007 C 
HETATM   27  C33 LBM A   1       9.329  -3.950  -9.741  1.00  0.00     0.032 C 
HETATM   28  C34 LBM A   1       9.693  -4.227 -11.184  1.00  0.00     0.168 C 
HETATM   29  O3  LBM A   1       8.587  -3.992 -12.049  1.00  0.00    -0.391 OA
HETATM   30  C35 LBM A   1       8.204  -2.616 -11.981  1.00  0.00     0.168 C 
HETATM   31  C36 LBM A   1       7.757  -2.249 -10.586  1.00  0.00     0.032 C 
ENDBRANCH  25  26
ENDBRANCH  23  25
ENDBRANCH  17  23
ENDBRANCH  11  14
ENDBRANCH   9  11
ENDBRANCH   6   7
BRANCH   2  32
HETATM   32  O6  LBM A   1       4.618  -2.312  -2.526  1.00  0.00    -0.308 OA
BRANCH  32  33
HETATM   33  C37 LBM A   1       4.793  -2.540  -3.876  1.00  0.00     0.094 A 
HETATM   34  C38 LBM A   1       5.525  -3.631  -4.301  1.00  0.00     0.156 A 
HETATM   35  N5  LBM A   1       5.706  -3.947  -5.590  1.00  0.00    -0.240 NA
HETATM   36  C39 LBM A   1       5.183  -3.078  -6.494  1.00  0.00     0.137 A 
HETATM   37  C40 LBM A   1       4.452  -1.921  -6.152  1.00  0.00     0.014 A 
HETATM   38  N6  LBM A   1       5.190  -3.211  -7.852  1.00  0.00    -0.350 N 
HETATM   39  C41 LBM A   1       4.229  -1.661  -4.804  1.00  0.00     0.054 A 
HETATM   40  C42 LBM A   1       4.017  -1.333  -7.415  1.00  0.00     0.032 A 
HETATM   41  C43 LBM A   1       4.480  -2.150  -8.399  1.00  0.00     0.090 A 
HETATM   42  HN6 LBM A   1       5.635  -3.954  -8.370  1.00  0.00     0.166 HD
ENDBRANCH  32  33
ENDBRANCH   2  32
BRANCH   5  43
HETATM   43  N1  LBM A   1       0.126  -1.485  -1.127  1.00  0.00    -0.377 N 
HETATM   44  C15 LBM A   1      -0.967  -0.605  -0.688  1.00  0.00     0.153 C 
HETATM   45  C14 LBM A   1      -2.326  -1.256  -0.973  1.00  0.00     0.292 C 
HETATM   46  N   LBM A   1      -2.439  -2.592  -0.344  1.00  0.00     0.095 N 
HETATM   47  C17 LBM A   1      -1.336  -3.437  -0.859  1.00  0.00     0.292 C 
HETATM   48  C16 LBM A   1       0.008  -2.815  -0.525  1.00  0.00     0.153 C 
BRANCH  46  49
HETATM   49  C13 LBM A   1      -3.742  -3.217  -0.642  1.00  0.00     0.307 C 
BRANCH  49  50
HETATM   50  C4  LBM A   1      -4.937  -2.459  -0.129  1.00  0.00    -0.045 C 
HETATM   51  C3  LBM A   1      -5.016  -2.214   1.357  1.00  0.00     0.037 C 
HETATM   52  C2  LBM A   1      -6.457  -1.921   1.746  1.00  0.00     0.013 C 
HETATM   53  C1  LBM A   1      -7.066  -0.813   0.880  1.00  0.00    -0.043 C 
HETATM   54  C   LBM A   1      -8.471  -0.475   1.376  1.00  0.00     0.015 C 
HETATM   55  C44 LBM A   1      -6.195   0.438   0.939  1.00  0.00     0.015 C 
HETATM   56  C6  LBM A   1      -7.141  -1.318  -0.563  1.00  0.00     0.048 C 
HETATM   57  C5  LBM A   1      -5.952  -2.120  -0.991  1.00  0.00    -0.043 C 
BRANCH  57  58
HETATM   58  C7  LBM A   1      -5.999  -2.544  -2.405  1.00  0.00    -0.029 A 
HETATM   59  C12 LBM A   1      -6.616  -3.744  -2.757  1.00  0.00     0.013 A 
HETATM   60  C11 LBM A   1      -6.724  -4.105  -4.081  1.00  0.00     0.024 A 
HETATM   61  C10 LBM A   1      -6.178  -3.300  -5.071  1.00  0.00     0.034 A 
HETATM   62  C9  LBM A   1      -5.528  -2.124  -4.729  1.00  0.00     0.024 A 
HETATM   63 CL   LBM A   1      -6.253  -3.796  -6.726  1.00  0.00    -0.084 Cl
HETATM   64  C8  LBM A   1      -5.445  -1.751  -3.408  1.00  0.00     0.013 A 
ENDBRANCH  57  58
ENDBRANCH  49  50
ENDBRANCH  46  49
ENDBRANCH   5  43
TORSDOF 13
