REMARK  Name = min_compound988.pdb
REMARK  7 active torsions:
REMARK  status: ('A' for Active; 'I' for Inactive)
REMARK    1  A    between atoms: _2  and  _21
REMARK    2  A    between atoms: _8  and  _14
REMARK    3  A    between atoms: _10  and  _12
REMARK    4  A    between atoms: _13  and  _14
REMARK    5  A    between atoms: _13  and  _17
REMARK    6  A    between atoms: _14  and  _15
REMARK    7  A    between atoms: _14  and  _16
REMARK                            x       y       z     vdW  Elec       q    Type
REMARK                         _______ _______ _______ _____ _____    ______ ____
ROOT
ATOM      1  O   UNL     1       4.217   6.088   0.000  0.00  0.00    -0.342 OA
ENDROOT
BRANCH   1   3
ATOM      2  N   UNL     1       6.456   5.858  -0.265  0.00  0.00    -0.216 NA
ATOM      3  C   UNL     1       5.425   6.721  -0.135  0.00  0.00    +0.248 A 
ATOM      4  C   UNL     1       5.599   8.114  -0.085  0.00  0.00    +0.092 A 
ATOM      5  C   UNL     1       6.876   8.670  -0.198  0.00  0.00    +0.035 A 
ATOM      6  C   UNL     1       7.932   7.784  -0.252  0.00  0.00    -0.005 A 
ATOM      7  C   UNL     1       9.402   8.048  -0.183  0.00  0.00    +0.039 C 
ATOM      8  C   UNL     1       9.977   6.704  -0.649  0.00  0.00    +0.011 C 
ATOM      9  C   UNL     1       8.957   5.631  -0.248  0.00  0.00    +0.056 C 
ATOM     10  C   UNL     1       7.677   6.417  -0.293  0.00  0.00    +0.050 A 
BRANCH   5  11
ATOM     11  N   UNL     1       7.073  10.037   0.000  0.00  0.00    -0.358 N 
ATOM     12  H   UNL     1       6.283  10.628  -0.244  0.00  0.00    +0.142 HD
ATOM     13  H   UNL     1       7.947  10.398  -0.368  0.00  0.00    +0.142 HD
ENDBRANCH   5  11
ENDBRANCH   1   3
BRANCH   1  14
ATOM     14  S   UNL     1       2.918   6.838   0.000  0.00  0.00    -0.013 S 
BRANCH  14  15
ATOM     15  C   UNL     1       1.960   5.133  -0.110  0.00  0.00    +0.098 A 
ATOM     16  C   UNL     1       2.668   3.921  -0.100  0.00  0.00    +0.028 A 
ATOM     17  C   UNL     1       1.969   2.712  -0.161  0.00  0.00    +0.005 A 
ATOM     18  C   UNL     1       0.571   2.697  -0.241  0.00  0.00    -0.050 A 
ATOM     19  C   UNL     1      -0.173   1.394  -0.245  0.00  0.00    +0.044 C 
ATOM     20  C   UNL     1      -0.127   3.911  -0.240  0.00  0.00    +0.005 A 
ATOM     21  C   UNL     1       0.559   5.128  -0.183  0.00  0.00    +0.028 A 
ENDBRANCH  14  15
BRANCH  14  22
ATOM     22  O   UNL     1       3.112   6.995   1.468  0.00  0.00    -0.263 OA
ATOM     23  H   UNL     1       3.940   6.565   1.732  0.00  0.00    +0.244 HD
ENDBRANCH  14  22
BRANCH  14  24
ATOM     24  O   UNL     1       1.619   7.588   0.000  0.00  0.00    -0.263 OA
ATOM     25  H   UNL     1       1.267   7.626  -0.903  0.00  0.00    +0.244 HD
ENDBRANCH  14  24
ENDBRANCH   1  14
TORSDOF 6
