REMARK  Name = min_compound963.pdb
REMARK  3 active torsions:
REMARK  status: ('A' for Active; 'I' for Inactive)
REMARK    1  A    between atoms: _7  and  _9
REMARK    2  A    between atoms: _11  and  _18
REMARK    3  A    between atoms: _15  and  _16
REMARK                            x       y       z     vdW  Elec       q    Type
REMARK                         _______ _______ _______ _____ _____    ______ ____
ROOT
ATOM      1  C   UNL     1       6.778   3.525   0.000  0.00  0.00    +0.250 C 
ATOM      2  N   UNL     1       7.594   2.412   0.000  0.00  0.00    -0.281 N 
ATOM      3  H   UNL     1       7.139   1.508   0.000  0.00  0.00    +0.155 HD
ATOM      4  O   UNL     1       7.181   4.685   0.000  0.00  0.00    -0.270 OA
ENDROOT
BRANCH   1  10
ATOM      5 CL   UNL     1       0.744   3.137   0.000  0.00  0.00    -0.083 Cl
ATOM      6  C   UNL     1       2.462   3.207   0.000  0.00  0.00    +0.042 A 
ATOM      7  C   UNL     1       3.204   2.030   0.000  0.00  0.00    +0.040 A 
ATOM      8  C   UNL     1       4.608   2.072   0.000  0.00  0.00    +0.054 A 
ATOM      9 CL   UNL     1       5.384   0.524   0.000  0.00  0.00    -0.083 Cl
ATOM     10  C   UNL     1       5.286   3.305   0.000  0.00  0.00    +0.055 A 
ATOM     11  C   UNL     1       4.502   4.481   0.000  0.00  0.00    +0.016 A 
ATOM     12  C   UNL     1       3.105   4.436   0.000  0.00  0.00    +0.021 A 
ENDBRANCH   1  10
BRANCH   2  13
ATOM     13  C   UNL     1       9.006   2.367   0.000  0.00  0.00    +0.035 A 
ATOM     14  C   UNL     1       9.598   1.095   0.000  0.00  0.00    +0.023 A 
ATOM     15  C   UNL     1      10.987   0.951   0.000  0.00  0.00    +0.003 A 
ATOM     16  C   UNL     1      11.802   2.080   0.000  0.00  0.00    +0.017 A 
ATOM     17  C   UNL     1      11.225   3.351   0.000  0.00  0.00    +0.026 A 
ATOM     18  C   UNL     1       9.832   3.493   0.000  0.00  0.00    +0.040 A 
BRANCH  17  19
ATOM     19  C   UNL     1      12.063   4.512   0.000  0.00  0.00    -0.070 C 
ATOM     20  C   UNL     1      12.764   5.487   0.000  0.00  0.00    +0.009 C 
ENDBRANCH  17  19
ENDBRANCH   2  13
TORSDOF 3
