REMARK  Name = min_compound946.pdb
REMARK  4 active torsions:
REMARK  status: ('A' for Active; 'I' for Inactive)
REMARK    1  A    between atoms: _1  and  _3
REMARK    2  A    between atoms: _1  and  _20
REMARK    3  A    between atoms: _2  and  _4
REMARK    4  A    between atoms: _2  and  _21
REMARK                            x       y       z     vdW  Elec       q    Type
REMARK                         _______ _______ _______ _____ _____    ______ ____
ROOT
ATOM      1  C   UNL     1       3.282   4.398  -0.122  0.00  0.00    +0.162 A 
ATOM      2  C   UNL     1       3.355   3.002  -0.111  0.00  0.00    +0.162 A 
ATOM      3  C   UNL     1       4.600   2.384  -0.022  0.00  0.00    +0.063 A 
ATOM      4  C   UNL     1       5.770   3.156  -0.009  0.00  0.00    +0.051 A 
ATOM      5  C   UNL     1       7.091   2.440   0.066  0.00  0.00    +0.260 A 
ATOM      6  O   UNL     1       7.144   1.216   0.121  0.00  0.00    -0.267 OA
ATOM      7  N   UNL     1       8.207   3.241   0.066  0.00  0.00    -0.307 N 
ATOM      8  C   UNL     1       9.601   2.809   0.128  0.00  0.00    +0.130 C 
ATOM      9  C   UNL     1      10.461   4.095   0.096  0.00  0.00    +0.059 C 
ATOM     10  C   UNL     1       9.425   5.175   0.019  0.00  0.00    -0.022 A 
ATOM     11  C   UNL     1       9.569   6.545  -0.035  0.00  0.00    +0.006 A 
ATOM     12  C   UNL     1       8.407   7.325  -0.105  0.00  0.00    +0.001 A 
ATOM     13  C   UNL     1       7.122   6.732  -0.120  0.00  0.00    +0.010 A 
ATOM     14  C   UNL     1       6.970   5.342  -0.065  0.00  0.00    +0.007 A 
ATOM     15  C   UNL     1       8.152   4.624   0.003  0.00  0.00    +0.056 A 
ATOM     16  C   UNL     1       5.714   4.574  -0.072  0.00  0.00    +0.000 A 
ATOM     17  C   UNL     1       4.447   5.175  -0.132  0.00  0.00    +0.058 A 
ENDROOT
BRANCH   1  18
ATOM     18  O   UNL     1       2.085   5.065  -0.160  0.00  0.00    -0.491 OA
ATOM     19  C   UNL     1       1.546   5.174   1.159  0.00  0.00    +0.277 C 
ENDBRANCH   1  18
BRANCH   2  20
ATOM     20  O   UNL     1       2.272   2.165  -0.122  0.00  0.00    -0.491 OA
ATOM     21  C   UNL     1       1.362   2.434  -1.188  0.00  0.00    +0.277 C 
ENDBRANCH   2  20
TORSDOF 2
