REMARK  Name = min_compound965.pdb
REMARK  9 active torsions:
REMARK  status: ('A' for Active; 'I' for Inactive)
REMARK    1  A    between atoms: _1  and  _3
REMARK    2  A    between atoms: _1  and  _12
REMARK    3  A    between atoms: _6  and  _8
REMARK    4  A    between atoms: _7  and  _13
REMARK    5  A    between atoms: _8  and  _14
REMARK    6  A    between atoms: _11  and  _15
REMARK    7  A    between atoms: _11  and  _16
REMARK    8  A    between atoms: _15  and  _18
REMARK    9  A    between atoms: _16  and  _17
REMARK                            x       y       z     vdW  Elec       q    Type
REMARK                         _______ _______ _______ _____ _____    ______ ____
ROOT
ATOM      1  N   UNL     1       6.595   3.649   0.110  0.00  0.00    -0.266 N 
ATOM      2  H   UNL     1       7.208   2.867   0.020  0.00  0.00    +0.156 HD
ATOM      3  C   UNL     1       7.217   4.810   0.529  0.00  0.00    +0.307 C 
ATOM      4  N   UNL     1       8.523   4.986   0.066  0.00  0.00    -0.278 N 
ATOM      5  O   UNL     1       6.676   5.648   1.249  0.00  0.00    -0.252 OA
ENDROOT
BRANCH   1   8
ATOM      6  C   UNL     1       2.899   4.661   0.008  0.00  0.00    +0.122 A 
ATOM      7  C   UNL     1       4.312   4.629   0.054  0.00  0.00    +0.072 A 
ATOM      8  C   UNL     1       5.189   3.411   0.082  0.00  0.00    +0.080 A 
ATOM      9  C   UNL     1       4.636   2.092   0.014  0.00  0.00    +0.141 A 
ATOM     10  C   UNL     1       3.206   2.131  -0.035  0.00  0.00    +0.051 A 
ATOM     11  C   UNL     1       2.364   3.368  -0.034  0.00  0.00    +0.049 A 
BRANCH   6  12
ATOM     12  O   UNL     1       2.250   5.946   0.000  0.00  0.00    -0.495 OA
ATOM     13  C   UNL     1       0.750   5.946   0.000  0.00  0.00    +0.277 C 
ENDBRANCH   6  12
BRANCH   9  14
ATOM     14  O   UNL     1       5.250   0.750   0.000  0.00  0.00    -0.493 OA
ATOM     15  C   UNL     1       6.750   0.750   0.000  0.00  0.00    +0.277 C 
ENDBRANCH   9  14
ENDBRANCH   1   8
BRANCH   4  16
ATOM     16  C   UNL     1       9.162   4.135  -0.937  0.00  0.00    +0.136 C 
BRANCH  16  17
ATOM     17  C   UNL     1      10.010   3.113  -0.235  0.00  0.00    -0.016 C 
ATOM     18  C   UNL     1      11.303   2.891  -0.507  0.00  0.00    +0.005 C 
ENDBRANCH  16  17
ENDBRANCH   4  16
BRANCH   4  19
ATOM     19  C   UNL     1       9.125   6.301   0.307  0.00  0.00    +0.136 C 
BRANCH  19  20
ATOM     20  C   UNL     1      10.546   6.179   0.765  0.00  0.00    -0.016 C 
ATOM     21  C   UNL     1      11.596   6.717   0.130  0.00  0.00    +0.005 C 
ENDBRANCH  19  20
ENDBRANCH   4  19
TORSDOF 7
