REMARK  Name = min_compound952.pdb
REMARK  4 active torsions:
REMARK  status: ('A' for Active; 'I' for Inactive)
REMARK    1  A    between atoms: _12  and  _19
REMARK    2  A    between atoms: _17  and  _18
REMARK    3  A    between atoms: _18  and  _20
REMARK    4  A    between atoms: _20  and  _21
REMARK                            x       y       z     vdW  Elec       q    Type
REMARK                         _______ _______ _______ _____ _____    ______ ____
ROOT
ATOM      1  C   UNL     1      -3.603  -8.956   0.373  0.00  0.00    +0.001 A 
ATOM      2  C   UNL     1      -3.738 -10.225  -0.184  0.00  0.00    +0.000 A 
ATOM      3  C   UNL     1      -2.602 -10.989  -0.453  0.00  0.00    +0.004 A 
ATOM      4  C   UNL     1      -1.321 -10.493  -0.155  0.00  0.00    -0.036 A 
ATOM      5  C   UNL     1      -0.097 -11.308  -0.488  0.00  0.00    +0.040 C 
ATOM      6  C   UNL     1       1.107 -10.960   0.392  0.00  0.00    +0.043 C 
ATOM      7  C   UNL     1       1.398  -9.476   0.382  0.00  0.00    +0.001 C 
ATOM      8  C   UNL     1       2.599  -8.931   0.085  0.00  0.00    +0.015 C 
ATOM      9  C   UNL     1       0.190  -8.668   0.689  0.00  0.00    +0.189 C 
ATOM     10  O   UNL     1       0.434  -7.570   1.264  0.00  0.00    -0.287 OA
ATOM     11  C   UNL     1      -1.175  -9.208   0.399  0.00  0.00    +0.025 A 
ATOM     12  C   UNL     1      -2.332  -8.454   0.660  0.00  0.00    +0.012 A 
ENDROOT
BRANCH   8  13
ATOM     13  C   UNL     1       3.880  -9.584  -0.212  0.00  0.00    -0.024 A 
ATOM     14  C   UNL     1       4.476 -10.493   0.672  0.00  0.00    +0.011 A 
ATOM     15  C   UNL     1       5.766 -10.982   0.429  0.00  0.00    +0.046 A 
ATOM     16  C   UNL     1       6.470 -10.542  -0.690  0.00  0.00    +0.121 A 
ATOM     17  C   UNL     1       5.871  -9.675  -1.601  0.00  0.00    +0.046 A 
ATOM     18  C   UNL     1       4.587  -9.184  -1.352  0.00  0.00    +0.011 A 
BRANCH  16  19
ATOM     19  O   UNL     1       7.759 -10.934  -0.941  0.00  0.00    -0.492 OA
BRANCH  19  20
ATOM     20  C   UNL     1       8.718 -10.399   0.000  0.00  0.00    +0.225 C 
ATOM     21  C   UNL     1       8.718  -8.899   0.000  0.00  0.00    +0.048 C 
ENDBRANCH  19  20
ENDBRANCH  16  19
ENDBRANCH   8  13
TORSDOF 3
