REMARK  Name = min_compound981.pdb
REMARK  7 active torsions:
REMARK  status: ('A' for Active; 'I' for Inactive)
REMARK    1  A    between atoms: _3  and  _7
REMARK    2  A    between atoms: _6  and  _19
REMARK    3  A    between atoms: _8  and  _9
REMARK    4  A    between atoms: _8  and  _10
REMARK    5  A    between atoms: _9  and  _13
REMARK    6  A    between atoms: _10  and  _11
REMARK    7  A    between atoms: _19  and  _20
REMARK                            x       y       z     vdW  Elec       q    Type
REMARK                         _______ _______ _______ _____ _____    ______ ____
ROOT
ATOM      1  C   UNL     1      -7.282  -2.365   0.012  0.00  0.00    +0.016 C 
ATOM      2  C   UNL     1      -5.946  -3.000   0.000  0.00  0.00    +0.014 C 
ENDROOT
BRANCH   1   4
ATOM      3  C   UNL     1      -9.688  -1.882   0.194  0.00  0.00    +0.008 A 
ATOM      4  C   UNL     1      -8.678  -2.847   0.025  0.00  0.00    -0.025 A 
ATOM      5  C   UNL     1      -9.082  -4.173  -0.152  0.00  0.00    +0.008 A 
ATOM      6  C   UNL     1     -10.438  -4.533  -0.137  0.00  0.00    +0.005 A 
ATOM      7  C   UNL     1     -11.419  -3.561   0.038  0.00  0.00    -0.034 A 
ATOM      8  C   UNL     1     -11.045  -2.231   0.200  0.00  0.00    +0.005 A 
BRANCH   7   9
ATOM      9  C   UNL     1     -12.801  -3.927   0.045  0.00  0.00    +0.113 C 
BRANCH   9  10
ATOM     10  N   UNL     1     -14.206  -4.301   0.050  0.00  0.00    -0.326 NA
ATOM     11  H   UNL     1     -14.431  -4.767   0.929  0.00  0.00    +0.119 HD
ATOM     12  H   UNL     1     -14.781  -3.464  -0.047  0.00  0.00    +0.119 HD
ENDBRANCH   9  10
ENDBRANCH   7   9
ENDBRANCH   1   4
BRANCH   2  13
ATOM     13  C   UNL     1      -4.820  -2.215  -0.078  0.00  0.00    +0.190 C 
ATOM     14  O   UNL     1      -4.794  -0.940  -0.145  0.00  0.00    -0.287 OA
BRANCH  13  15
ATOM     15  C   UNL     1      -3.469  -2.907  -0.048  0.00  0.00    +0.022 A 
ATOM     16  C   UNL     1      -3.102  -3.940  -0.924  0.00  0.00    +0.012 A 
ATOM     17  C   UNL     1      -1.815  -4.486  -0.897  0.00  0.00    +0.001 A 
ATOM     18  C   UNL     1      -0.848  -3.975  -0.027  0.00  0.00    +0.000 A 
ATOM     19  C   UNL     1      -1.174  -2.924   0.821  0.00  0.00    +0.001 A 
ATOM     20  C   UNL     1      -2.471  -2.405   0.813  0.00  0.00    +0.012 A 
ENDBRANCH  13  15
ENDBRANCH   2  13
BRANCH   2  21
ATOM     21  C   UNL     1      -5.946  -4.500   0.000  0.00  0.00    +0.117 C 
BRANCH  21  22
ATOM     22  N   UNL     1      -5.946  -6.000   0.000  0.00  0.00    -0.326 NA
ATOM     23  H   UNL     1      -6.427  -6.340  -0.833  0.00  0.00    +0.119 HD
ATOM     24  H   UNL     1      -4.984  -6.340   0.000  0.00  0.00    +0.119 HD
ENDBRANCH  21  22
ENDBRANCH   2  21
TORSDOF 7
