REMARK  Name = min_compound9.pdb
REMARK  0 active torsions:
REMARK  status: ('A' for Active; 'I' for Inactive)
REMARK                            x       y       z     vdW  Elec       q    Type
REMARK                         _______ _______ _______ _____ _____    ______ ____
ROOT
ATOM      1  C   UNL     1       1.982   1.331   0.040  0.00  0.00    +0.023 A 
ATOM      2  C   UNL     1       1.997  -0.052  -0.050  0.00  0.00    +0.113 A 
ATOM      3  N   UNL     1       3.128  -0.791  -0.094  0.00  0.00    -0.237 NA
ATOM      4  C   UNL     1       4.293  -0.113  -0.047  0.00  0.00    +0.167 A 
ATOM      5  N   UNL     1       5.446  -0.877  -0.089  0.00  0.00    -0.265 N 
ATOM      6  H   UNL     1       5.346  -1.879  -0.145  0.00  0.00    +0.156 HD
ATOM      7  C   UNL     1       6.688  -0.324  -0.058  0.00  0.00    +0.256 C 
ATOM      8  O   UNL     1       7.704  -1.015  -0.093  0.00  0.00    -0.272 OA
ATOM      9  C   UNL     1       6.733   1.205   0.010  0.00  0.00    +0.325 C 
ATOM     10  O   UNL     1       5.547   1.980   0.099  0.00  0.00    -0.479 OA
ATOM     11  C   UNL     1       4.383   1.272   0.043  0.00  0.00    +0.161 A 
ATOM     12  C   UNL     1       3.200   2.002   0.088  0.00  0.00    +0.051 A 
ENDROOT
TORSDOF 0
