REMARK  Name = min_compound954.pdb
REMARK  6 active torsions:
REMARK  status: ('A' for Active; 'I' for Inactive)
REMARK    1  A    between atoms: _1  and  _4
REMARK    2  A    between atoms: _1  and  _14
REMARK    3  A    between atoms: _2  and  _3
REMARK    4  A    between atoms: _2  and  _15
REMARK    5  A    between atoms: _9  and  _12
REMARK    6  A    between atoms: _13  and  _16
REMARK                            x       y       z     vdW  Elec       q    Type
REMARK                         _______ _______ _______ _____ _____    ______ ____
ROOT
ATOM      1  C   UNL     1       4.689   3.167   0.247  0.00  0.00    +0.163 A 
ATOM      2  C   UNL     1       6.043   3.444   0.019  0.00  0.00    +0.067 A 
ATOM      3  C   UNL     1       6.920   2.364   0.070  0.00  0.00    +0.098 A 
ATOM      4  C   UNL     1       8.306   2.277  -0.109  0.00  0.00    +0.204 C 
ATOM      5  C   UNL     1       8.639   0.884   0.080  0.00  0.00    +0.261 C 
ATOM      6  N   UNL     1       7.517   0.206   0.333  0.00  0.00    -0.209 N 
ATOM      7  O   UNL     1       7.397  -1.041   0.621  0.00  0.00    -0.549 OA
ATOM      8  C   UNL     1       6.515   1.048   0.336  0.00  0.00    +0.226 A 
ATOM      9  C   UNL     1       5.162   0.755   0.568  0.00  0.00    +0.128 A 
ATOM     10  C   UNL     1       4.264   1.832   0.490  0.00  0.00    +0.168 A 
ENDROOT
BRANCH   5  11
ATOM     11  C   UNL     1      10.075   0.306  -0.009  0.00  0.00    +0.051 A 
ATOM     12  C   UNL     1      10.301  -1.051  -0.271  0.00  0.00    +0.014 A 
ATOM     13  C   UNL     1      11.598  -1.574  -0.346  0.00  0.00    +0.001 A 
ATOM     14  C   UNL     1      12.699  -0.743  -0.164  0.00  0.00    +0.000 A 
ATOM     15  C   UNL     1      12.497   0.609   0.095  0.00  0.00    +0.001 A 
ATOM     16  C   UNL     1      11.197   1.124   0.173  0.00  0.00    +0.014 A 
ENDBRANCH   5  11
BRANCH   1  17
ATOM     17  O   UNL     1       3.704   4.134   0.255  0.00  0.00    -0.491 OA
ATOM     18  C   UNL     1       4.151   5.476   0.115  0.00  0.00    +0.277 C 
ENDBRANCH   1  17
BRANCH   4  19
ATOM     19  O   UNL     1       9.077   3.312  -0.434  0.00  0.00    -0.501 OA
ATOM     20  H   UNL     1       8.703   4.167  -0.519  0.00  0.00    +0.292 HD
ENDBRANCH   4  19
BRANCH  10  21
ATOM     21  O   UNL     1       2.934   1.517   0.705  0.00  0.00    -0.491 OA
ATOM     22  C   UNL     1       2.159   1.773  -0.462  0.00  0.00    +0.277 C 
ENDBRANCH  10  21
TORSDOF 4
