REMARK  Name = min_compound923.pdb
REMARK  3 active torsions:
REMARK  status: ('A' for Active; 'I' for Inactive)
REMARK    1  A    between atoms: _5  and  _7
REMARK    2  A    between atoms: _6  and  _17
REMARK    3  A    between atoms: _9  and  _18
REMARK                            x       y       z     vdW  Elec       q    Type
REMARK                         _______ _______ _______ _____ _____    ______ ____
ROOT
ATOM      1  C   UNL     1       5.285   3.454   0.347  0.00  0.00    +0.250 C 
ATOM      2  N   UNL     1       6.071   2.468  -0.217  0.00  0.00    -0.280 N 
ATOM      3  H   UNL     1       5.554   1.614  -0.428  0.00  0.00    +0.155 HD
ATOM      4  O   UNL     1       5.677   4.391   1.033  0.00  0.00    -0.270 OA
ENDROOT
BRANCH   2   5
ATOM      5  C   UNL     1       7.478   2.369  -0.162  0.00  0.00    +0.052 A 
ATOM      6  C   UNL     1       7.978   1.058  -0.078  0.00  0.00    +0.026 A 
ATOM      7  C   UNL     1       9.349   0.815   0.031  0.00  0.00    +0.022 A 
ATOM      8  C   UNL     1      10.238   1.884   0.034  0.00  0.00    +0.042 A 
ATOM      9 CL   UNL     1      11.927   1.587   0.169  0.00  0.00    -0.083 Cl
ATOM     10  C   UNL     1       9.770   3.187  -0.103  0.00  0.00    +0.041 A 
ATOM     11  C   UNL     1       8.395   3.435  -0.221  0.00  0.00    +0.064 A 
ATOM     12 CL   UNL     1       7.961   5.055  -0.645  0.00  0.00    -0.082 Cl
ENDBRANCH   2   5
BRANCH   1  17
ATOM     13  C   UNL     1       1.642   4.369  -0.006  0.00  0.00    +0.001 A 
ATOM     14  C   UNL     1       1.034   3.131  -0.192  0.00  0.00    +0.002 A 
ATOM     15  C   UNL     1       1.806   1.968  -0.212  0.00  0.00    +0.023 A 
ATOM     16  C   UNL     1       3.202   2.027  -0.085  0.00  0.00    +0.037 A 
ATOM     17  C   UNL     1       3.811   3.282   0.139  0.00  0.00    +0.058 A 
ATOM     18  C   UNL     1       3.024   4.444   0.168  0.00  0.00    +0.015 A 
BRANCH  16  19
ATOM     19  N   UNL     1       3.922   0.807   0.050  0.00  0.00    -0.357 N 
ATOM     20  H   UNL     1       4.029   0.601   1.048  0.00  0.00    +0.142 HD
ATOM     21  H   UNL     1       3.411   0.033  -0.376  0.00  0.00    +0.142 HD
ENDBRANCH  16  19
ENDBRANCH   1  17
TORSDOF 3
