REMARK  Name = min_compound939.pdb
REMARK  4 active torsions:
REMARK  status: ('A' for Active; 'I' for Inactive)
REMARK    1  A    between atoms: _14  and  _15
REMARK    2  A    between atoms: _15  and  _18
REMARK    3  A    between atoms: _18  and  _19
REMARK    4  A    between atoms: _19  and  _20
REMARK                            x       y       z     vdW  Elec       q    Type
REMARK                         _______ _______ _______ _____ _____    ______ ____
ROOT
ATOM      1  C   UNL     1       1.652   4.165   0.000  0.00  0.00    +0.005 C 
ATOM      2  C   UNL     1       1.652   2.665   0.000  0.00  0.00    +0.005 C 
ATOM      3  C   UNL     1       2.965   2.449   0.964  0.00  0.00    +0.037 C 
ATOM      4  C   UNL     1       4.194   3.047   0.349  0.00  0.00    -0.023 A 
ATOM      5  C   UNL     1       5.556   2.644   0.504  0.00  0.00    +0.075 A 
ATOM      6  C   UNL     1       6.117   1.543   1.259  0.00  0.00    +0.260 A 
ATOM      7  O   UNL     1       5.461   0.722   1.890  0.00  0.00    -0.267 OA
ATOM      8  N   UNL     1       7.486   1.483   1.214  0.00  0.00    -0.301 N 
ATOM      9  H   UNL     1       7.917   0.745   1.751  0.00  0.00    +0.171 HD
ATOM     10  C   UNL     1       8.257   2.387   0.509  0.00  0.00    +0.220 A 
ATOM     11  N   UNL     1       7.794   3.373  -0.200  0.00  0.00    -0.216 NA
ATOM     12  C   UNL     1       6.434   3.469  -0.178  0.00  0.00    +0.116 A 
ATOM     13  S   UNL     1       5.601   4.701  -1.028  0.00  0.00    -0.073 S 
ATOM     14  C   UNL     1       4.093   4.147  -0.474  0.00  0.00    -0.004 A 
ATOM     15  C   UNL     1       2.791   4.769  -0.855  0.00  0.00    +0.043 C 
ENDROOT
BRANCH  10  16
ATOM     16  C   UNL     1       9.746   2.140   0.655  0.00  0.00    +0.375 C 
ATOM     17  O   UNL     1      10.343   2.441   1.672  0.00  0.00    -0.242 OA
BRANCH  16  18
ATOM     18  O   UNL     1      10.180   1.388  -0.376  0.00  0.00    -0.459 OA
BRANCH  18  19
ATOM     19  C   UNL     1      11.498   0.842  -0.217  0.00  0.00    +0.229 C 
ATOM     20  C   UNL     1      12.559   1.837  -0.645  0.00  0.00    +0.048 C 
ENDBRANCH  18  19
ENDBRANCH  16  18
ENDBRANCH  10  16
TORSDOF 3
