REMARK  Name = min_compound925.pdb
REMARK  6 active torsions:
REMARK  status: ('A' for Active; 'I' for Inactive)
REMARK    1  A    between atoms: _1  and  _13
REMARK    2  A    between atoms: _6  and  _7
REMARK    3  A    between atoms: _9  and  _14
REMARK    4  A    between atoms: _12  and  _21
REMARK    5  A    between atoms: _14  and  _15
REMARK    6  A    between atoms: _21  and  _22
REMARK                            x       y       z     vdW  Elec       q    Type
REMARK                         _______ _______ _______ _____ _____    ______ ____
ROOT
ATOM      1  C   UNL     1       8.199   2.179   0.496  0.00  0.00    +0.127 C 
ATOM      2  N   UNL     1       9.006   0.967   0.070  0.00  0.00    -0.321 N 
ATOM      3  C   UNL     1      10.434   1.077   0.085  0.00  0.00    +0.076 C 
ATOM      4  C   UNL     1      11.149   2.223   0.000  0.00  0.00    -0.020 C 
ATOM      5  C   UNL     1      10.340   3.438  -0.128  0.00  0.00    +0.004 C 
ATOM      6  C   UNL     1       8.993   3.423   0.064  0.00  0.00    +0.000 C 
ENDROOT
BRANCH   1  11
ATOM      7  C   UNL     1       3.650   2.223   0.000  0.00  0.00    -0.050 A 
ATOM      8  C   UNL     1       2.150   2.223   0.000  0.00  0.00    +0.044 C 
ATOM      9  C   UNL     1       4.335   1.519   1.007  0.00  0.00    +0.004 A 
ATOM     10  C   UNL     1       5.765   1.503   1.126  0.00  0.00    +0.006 A 
ATOM     11  C   UNL     1       6.636   2.171   0.230  0.00  0.00    -0.023 A 
ATOM     12  C   UNL     1       5.961   2.858  -0.795  0.00  0.00    +0.006 A 
ATOM     13  C   UNL     1       4.513   2.892  -0.897  0.00  0.00    +0.004 A 
ENDBRANCH   1  11
BRANCH   2  14
ATOM     14  C   UNL     1       8.316  -0.327   0.273  0.00  0.00    +0.140 C 
BRANCH  14  15
ATOM     15  C   UNL     1       9.107  -1.576  -0.070  0.00  0.00    -0.030 A 
ATOM     16  C   UNL     1       9.322  -2.563   0.906  0.00  0.00    +0.005 A 
ATOM     17  C   UNL     1      10.033  -3.725   0.602  0.00  0.00    +0.000 A 
ATOM     18  C   UNL     1      10.540  -3.914  -0.682  0.00  0.00    +0.000 A 
ATOM     19  C   UNL     1      10.327  -2.947  -1.663  0.00  0.00    +0.000 A 
ATOM     20  C   UNL     1       9.606  -1.789  -1.364  0.00  0.00    +0.005 A 
ENDBRANCH  14  15
ENDBRANCH   2  14
BRANCH   4  21
ATOM     21  C   UNL     1      12.649   2.223   0.000  0.00  0.00    +0.114 C 
BRANCH  21  22
ATOM     22  N   UNL     1      14.149   2.223   0.000  0.00  0.00    -0.326 NA
ATOM     23  H   UNL     1      14.489   2.704   0.833  0.00  0.00    +0.119 HD
ATOM     24  H   UNL     1      14.489   1.261   0.000  0.00  0.00    +0.119 HD
ENDBRANCH  21  22
ENDBRANCH   4  21
TORSDOF 5
