MODEL 1
REMARK VINA RESULT:      -6.5      0.000      0.000
REMARK  Name = min_compound920.pdb
REMARK  4 active torsions:
REMARK  status: ('A' for Active; 'I' for Inactive)
REMARK    1  A    between atoms: _6  and  _16
REMARK    2  A    between atoms: _10  and  _11
REMARK    3  A    between atoms: _12  and  _18
REMARK    4  A    between atoms: _16  and  _17
REMARK                            x       y       z     vdW  Elec       q    Type
REMARK                         _______ _______ _______ _____ _____    ______ ____
ROOT
ATOM      1  N   UNL     1     -13.654   3.820 -14.982  0.00  0.00    -0.307 N 
ATOM      2  H   UNL     1     -13.001   3.720 -14.219  0.00  0.00    +0.149 HD
ATOM      3  C   UNL     1     -13.540   2.996 -16.085  0.00  0.00    +0.254 C 
ATOM      4  O   UNL     1     -14.466   2.905 -16.889  0.00  0.00    -0.270 OA
ENDROOT
BRANCH   3   5
ATOM      5  C   UNL     1     -12.307   2.250 -16.201  0.00  0.00    +0.117 A 
ATOM      6  C   UNL     1     -10.959   2.558 -16.048  0.00  0.00    +0.081 A 
ATOM      7  C   UNL     1     -10.331   3.862 -15.721  0.00  0.00    +0.069 C 
ATOM      8  N   UNL     1     -10.093   1.485 -16.249  0.00  0.00    -0.146 NA
ATOM      9  N   UNL     1     -10.735   0.379 -16.576  0.00  0.00    -0.110 NA
ATOM     10  S   UNL     1     -12.387   0.590 -16.656  0.00  0.00    +0.041 S 
ENDBRANCH   3   5
BRANCH   1  11
ATOM     11  C   UNL     1     -14.898   4.508 -14.710  0.00  0.00    +0.144 C 
BRANCH  11  16
ATOM     12  C   UNL     1     -16.924   3.402 -11.027  0.00  0.00    +0.004 A 
ATOM     13  C   UNL     1     -17.334   2.879 -12.251  0.00  0.00    +0.020 A 
ATOM     14  C   UNL     1     -16.673   3.240 -13.431  0.00  0.00    +0.048 A 
ATOM     15 CL   UNL     1     -17.242   2.525 -14.901  0.00  0.00    -0.083 Cl
ATOM     16  C   UNL     1     -15.589   4.139 -13.419  0.00  0.00    +0.023 A 
ATOM     17  C   UNL     1     -15.193   4.634 -12.169  0.00  0.00    +0.129 A 
ATOM     18  F   UNL     1     -14.146   5.466 -12.068  0.00  0.00    -0.205 F 
ATOM     19  C   UNL     1     -15.848   4.282 -10.988  0.00  0.00    +0.039 A 
ENDBRANCH  11  16
ENDBRANCH   1  11
TORSDOF 3
ENDMDL
MODEL 2
REMARK VINA RESULT:      -6.4      7.033      9.034
REMARK  Name = min_compound920.pdb
REMARK  4 active torsions:
REMARK  status: ('A' for Active; 'I' for Inactive)
REMARK    1  A    between atoms: _6  and  _16
REMARK    2  A    between atoms: _10  and  _11
REMARK    3  A    between atoms: _12  and  _18
REMARK    4  A    between atoms: _16  and  _17
REMARK                            x       y       z     vdW  Elec       q    Type
REMARK                         _______ _______ _______ _____ _____    ______ ____
ROOT
ATOM      1  N   UNL     1     -17.215   3.077  -6.804  0.00  0.00    -0.307 N 
ATOM      2  H   UNL     1     -17.252   3.903  -6.224  0.00  0.00    +0.149 HD
ATOM      3  C   UNL     1     -16.895   3.203  -8.142  0.00  0.00    +0.254 C 
ATOM      4  O   UNL     1     -16.576   2.212  -8.799  0.00  0.00    -0.270 OA
ENDROOT
BRANCH   3   5
ATOM      5  C   UNL     1     -16.930   4.541  -8.685  0.00  0.00    +0.117 A 
ATOM      6  C   UNL     1     -16.365   5.161  -9.796  0.00  0.00    +0.081 A 
ATOM      7  C   UNL     1     -15.460   4.591 -10.824  0.00  0.00    +0.069 C 
ATOM      8  N   UNL     1     -16.693   6.508  -9.936  0.00  0.00    -0.146 NA
ATOM      9  N   UNL     1     -17.465   6.939  -8.957  0.00  0.00    -0.110 NA
ATOM     10  S   UNL     1     -17.817   5.752  -7.841  0.00  0.00    +0.041 S 
ENDBRANCH   3   5
BRANCH   1  11
ATOM     11  C   UNL     1     -17.085   1.798  -6.138  0.00  0.00    +0.144 C 
BRANCH  11  16
ATOM     12  C   UNL     1     -13.399   1.145  -3.928  0.00  0.00    +0.004 A 
ATOM     13  C   UNL     1     -13.728   0.343  -5.019  0.00  0.00    +0.020 A 
ATOM     14  C   UNL     1     -14.918   0.563  -5.725  0.00  0.00    +0.048 A 
ATOM     15 CL   UNL     1     -15.232  -0.472  -7.076  0.00  0.00    -0.083 Cl
ATOM     16  C   UNL     1     -15.811   1.588  -5.356  0.00  0.00    +0.023 A 
ATOM     17  C   UNL     1     -15.441   2.385  -4.264  0.00  0.00    +0.129 A 
ATOM     18  F   UNL     1     -16.219   3.405  -3.873  0.00  0.00    -0.205 F 
ATOM     19  C   UNL     1     -14.260   2.171  -3.553  0.00  0.00    +0.039 A 
ENDBRANCH  11  16
ENDBRANCH   1  11
TORSDOF 3
ENDMDL
MODEL 3
REMARK VINA RESULT:      -6.3      4.252      6.684
REMARK  Name = min_compound920.pdb
REMARK  4 active torsions:
REMARK  status: ('A' for Active; 'I' for Inactive)
REMARK    1  A    between atoms: _6  and  _16
REMARK    2  A    between atoms: _10  and  _11
REMARK    3  A    between atoms: _12  and  _18
REMARK    4  A    between atoms: _16  and  _17
REMARK                            x       y       z     vdW  Elec       q    Type
REMARK                         _______ _______ _______ _____ _____    ______ ____
ROOT
ATOM      1  N   UNL     1     -14.759   5.788 -16.589  0.00  0.00    -0.307 N 
ATOM      2  H   UNL     1     -15.154   5.298 -15.799  0.00  0.00    +0.149 HD
ATOM      3  C   UNL     1     -14.696   7.168 -16.567  0.00  0.00    +0.254 C 
ATOM      4  O   UNL     1     -13.984   7.769 -17.371  0.00  0.00    -0.270 OA
ENDROOT
BRANCH   3   5
ATOM      5  C   UNL     1     -15.474   7.828 -15.543  0.00  0.00    +0.117 A 
ATOM      6  C   UNL     1     -15.905   7.481 -14.267  0.00  0.00    +0.081 A 
ATOM      7  C   UNL     1     -15.700   6.213 -13.524  0.00  0.00    +0.069 C 
ATOM      8  N   UNL     1     -16.643   8.468 -13.617  0.00  0.00    -0.146 NA
ATOM      9  N   UNL     1     -16.810   9.542 -14.366  0.00  0.00    -0.110 NA
ATOM     10  S   UNL     1     -16.096   9.401 -15.865  0.00  0.00    +0.041 S 
ENDBRANCH   3   5
BRANCH   1  11
ATOM     11  C   UNL     1     -13.916   5.032 -17.491  0.00  0.00    +0.144 C 
BRANCH  11  16
ATOM     12  C   UNL     1     -10.432   3.143 -15.707  0.00  0.00    +0.004 A 
ATOM     13  C   UNL     1     -11.665   2.496 -15.719  0.00  0.00    +0.020 A 
ATOM     14  C   UNL     1     -12.782   3.113 -16.298  0.00  0.00    +0.048 A 
ATOM     15 CL   UNL     1     -14.267   2.225 -16.281  0.00  0.00    -0.083 Cl
ATOM     16  C   UNL     1     -12.693   4.395 -16.875  0.00  0.00    +0.023 A 
ATOM     17  C   UNL     1     -11.435   5.010 -16.860  0.00  0.00    +0.129 A 
ATOM     18  F   UNL     1     -11.260   6.214 -17.423  0.00  0.00    -0.205 F 
ATOM     19  C   UNL     1     -10.318   4.404 -16.282  0.00  0.00    +0.039 A 
ENDBRANCH  11  16
ENDBRANCH   1  11
TORSDOF 3
ENDMDL
MODEL 4
REMARK VINA RESULT:      -6.3      4.782      6.770
REMARK  Name = min_compound920.pdb
REMARK  4 active torsions:
REMARK  status: ('A' for Active; 'I' for Inactive)
REMARK    1  A    between atoms: _6  and  _16
REMARK    2  A    between atoms: _10  and  _11
REMARK    3  A    between atoms: _12  and  _18
REMARK    4  A    between atoms: _16  and  _17
REMARK                            x       y       z     vdW  Elec       q    Type
REMARK                         _______ _______ _______ _____ _____    ______ ____
ROOT
ATOM      1  N   UNL     1     -14.840   5.829 -16.619  0.00  0.00    -0.307 N 
ATOM      2  H   UNL     1     -15.234   5.291 -15.860  0.00  0.00    +0.149 HD
ATOM      3  C   UNL     1     -14.836   7.208 -16.541  0.00  0.00    +0.254 C 
ATOM      4  O   UNL     1     -14.129   7.869 -17.301  0.00  0.00    -0.270 OA
ENDROOT
BRANCH   3   5
ATOM      5  C   UNL     1     -15.668   7.794 -15.516  0.00  0.00    +0.117 A 
ATOM      6  C   UNL     1     -16.369   8.989 -15.389  0.00  0.00    +0.081 A 
ATOM      7  C   UNL     1     -16.454  10.127 -16.338  0.00  0.00    +0.069 C 
ATOM      8  N   UNL     1     -17.069   9.126 -14.192  0.00  0.00    -0.146 NA
ATOM      9  N   UNL     1     -16.902   8.089 -13.394  0.00  0.00    -0.110 NA
ATOM     10  S   UNL     1     -15.904   6.925 -14.047  0.00  0.00    +0.041 S 
ENDBRANCH   3   5
BRANCH   1  11
ATOM     11  C   UNL     1     -13.942   5.144 -17.525  0.00  0.00    +0.144 C 
BRANCH  11  16
ATOM     12  C   UNL     1     -10.476   3.260 -15.701  0.00  0.00    +0.004 A 
ATOM     13  C   UNL     1     -11.717   2.628 -15.694  0.00  0.00    +0.020 A 
ATOM     14  C   UNL     1     -12.827   3.243 -16.286  0.00  0.00    +0.048 A 
ATOM     15 CL   UNL     1     -14.323   2.373 -16.244  0.00  0.00    -0.083 Cl
ATOM     16  C   UNL     1     -12.726   4.509 -16.896  0.00  0.00    +0.023 A 
ATOM     17  C   UNL     1     -11.460   5.109 -16.899  0.00  0.00    +0.129 A 
ATOM     18  F   UNL     1     -11.272   6.297 -17.492  0.00  0.00    -0.205 F 
ATOM     19  C   UNL     1     -10.349   4.504 -16.309  0.00  0.00    +0.039 A 
ENDBRANCH  11  16
ENDBRANCH   1  11
TORSDOF 3
ENDMDL
MODEL 5
REMARK VINA RESULT:      -6.3      6.954      8.949
REMARK  Name = min_compound920.pdb
REMARK  4 active torsions:
REMARK  status: ('A' for Active; 'I' for Inactive)
REMARK    1  A    between atoms: _6  and  _16
REMARK    2  A    between atoms: _10  and  _11
REMARK    3  A    between atoms: _12  and  _18
REMARK    4  A    between atoms: _16  and  _17
REMARK                            x       y       z     vdW  Elec       q    Type
REMARK                         _______ _______ _______ _____ _____    ______ ____
ROOT
ATOM      1  N   UNL     1     -17.280   3.048  -7.168  0.00  0.00    -0.307 N 
ATOM      2  H   UNL     1     -17.443   3.842  -6.565  0.00  0.00    +0.149 HD
ATOM      3  C   UNL     1     -16.796   3.256  -8.445  0.00  0.00    +0.254 C 
ATOM      4  O   UNL     1     -16.333   2.317  -9.091  0.00  0.00    -0.270 OA
ENDROOT
BRANCH   3   5
ATOM      5  C   UNL     1     -16.841   4.615  -8.933  0.00  0.00    +0.117 A 
ATOM      6  C   UNL     1     -16.257   5.290 -10.000  0.00  0.00    +0.081 A 
ATOM      7  C   UNL     1     -15.313   4.780 -11.025  0.00  0.00    +0.069 C 
ATOM      8  N   UNL     1     -16.607   6.636 -10.095  0.00  0.00    -0.146 NA
ATOM      9  N   UNL     1     -17.414   7.012  -9.121  0.00  0.00    -0.110 NA
ATOM     10  S   UNL     1     -17.774   5.774  -8.065  0.00  0.00    +0.041 S 
ENDBRANCH   3   5
BRANCH   1  11
ATOM     11  C   UNL     1     -17.160   1.749  -6.542  0.00  0.00    +0.144 C 
BRANCH  11  16
ATOM     12  C   UNL     1     -13.618   1.152  -4.093  0.00  0.00    +0.004 A 
ATOM     13  C   UNL     1     -14.663   1.959  -3.650  0.00  0.00    +0.020 A 
ATOM     14  C   UNL     1     -15.801   2.143  -4.446  0.00  0.00    +0.048 A 
ATOM     15 CL   UNL     1     -17.054   3.148  -3.804  0.00  0.00    -0.083 Cl
ATOM     16  C   UNL     1     -15.920   1.529  -5.708  0.00  0.00    +0.023 A 
ATOM     17  C   UNL     1     -14.857   0.712  -6.116  0.00  0.00    +0.129 A 
ATOM     18  F   UNL     1     -14.910   0.062  -7.288  0.00  0.00    -0.205 F 
ATOM     19  C   UNL     1     -13.719   0.525  -5.330  0.00  0.00    +0.039 A 
ENDBRANCH  11  16
ENDBRANCH   1  11
TORSDOF 3
ENDMDL
MODEL 6
REMARK VINA RESULT:      -6.2      4.223      6.723
REMARK  Name = min_compound920.pdb
REMARK  4 active torsions:
REMARK  status: ('A' for Active; 'I' for Inactive)
REMARK    1  A    between atoms: _6  and  _16
REMARK    2  A    between atoms: _10  and  _11
REMARK    3  A    between atoms: _12  and  _18
REMARK    4  A    between atoms: _16  and  _17
REMARK                            x       y       z     vdW  Elec       q    Type
REMARK                         _______ _______ _______ _____ _____    ______ ____
ROOT
ATOM      1  N   UNL     1     -15.158   5.393 -16.071  0.00  0.00    -0.307 N 
ATOM      2  H   UNL     1     -15.477   4.679 -15.431  0.00  0.00    +0.149 HD
ATOM      3  C   UNL     1     -15.238   6.721 -15.699  0.00  0.00    +0.254 C 
ATOM      4  O   UNL     1     -14.616   7.578 -16.324  0.00  0.00    -0.270 OA
ENDROOT
BRANCH   3   5
ATOM      5  C   UNL     1     -16.052   7.013 -14.541  0.00  0.00    +0.117 A 
ATOM      6  C   UNL     1     -16.098   6.540 -13.233  0.00  0.00    +0.081 A 
ATOM      7  C   UNL     1     -15.273   5.486 -12.592  0.00  0.00    +0.069 C 
ATOM      8  N   UNL     1     -17.069   7.140 -12.434  0.00  0.00    -0.146 NA
ATOM      9  N   UNL     1     -17.780   8.032 -13.097  0.00  0.00    -0.110 NA
ATOM     10  S   UNL     1     -17.313   8.177 -14.690  0.00  0.00    +0.041 S 
ENDBRANCH   3   5
BRANCH   1  11
ATOM     11  C   UNL     1     -14.267   4.984 -17.136  0.00  0.00    +0.144 C 
BRANCH  11  16
ATOM     12  C   UNL     1     -10.418   3.377 -15.913  0.00  0.00    +0.004 A 
ATOM     13  C   UNL     1     -10.499   4.580 -16.610  0.00  0.00    +0.020 A 
ATOM     14  C   UNL     1     -11.744   5.090 -16.998  0.00  0.00    +0.048 A 
ATOM     15 CL   UNL     1     -11.746   6.599 -17.845  0.00  0.00    -0.083 Cl
ATOM     16  C   UNL     1     -12.940   4.407 -16.703  0.00  0.00    +0.023 A 
ATOM     17  C   UNL     1     -12.823   3.208 -15.987  0.00  0.00    +0.129 A 
ATOM     18  F   UNL     1     -13.918   2.518 -15.634  0.00  0.00    -0.205 F 
ATOM     19  C   UNL     1     -11.587   2.691 -15.599  0.00  0.00    +0.039 A 
ENDBRANCH  11  16
ENDBRANCH   1  11
TORSDOF 3
ENDMDL
MODEL 7
REMARK VINA RESULT:      -6.1     11.751     13.291
REMARK  Name = min_compound920.pdb
REMARK  4 active torsions:
REMARK  status: ('A' for Active; 'I' for Inactive)
REMARK    1  A    between atoms: _6  and  _16
REMARK    2  A    between atoms: _10  and  _11
REMARK    3  A    between atoms: _12  and  _18
REMARK    4  A    between atoms: _16  and  _17
REMARK                            x       y       z     vdW  Elec       q    Type
REMARK                         _______ _______ _______ _____ _____    ______ ____
ROOT
ATOM      1  N   UNL     1     -14.337  -1.510  -2.585  0.00  0.00    -0.307 N 
ATOM      2  H   UNL     1     -13.478  -1.766  -3.049  0.00  0.00    +0.149 HD
ATOM      3  C   UNL     1     -15.256  -0.718  -3.247  0.00  0.00    +0.254 C 
ATOM      4  O   UNL     1     -16.407  -0.621  -2.825  0.00  0.00    -0.270 OA
ENDROOT
BRANCH   3   5
ATOM      5  C   UNL     1     -14.789  -0.063  -4.447  0.00  0.00    +0.117 A 
ATOM      6  C   UNL     1     -14.167   1.151  -4.720  0.00  0.00    +0.081 A 
ATOM      7  C   UNL     1     -13.794   2.241  -3.784  0.00  0.00    +0.069 C 
ATOM      8  N   UNL     1     -13.878   1.364  -6.067  0.00  0.00    -0.146 NA
ATOM      9  N   UNL     1     -14.282   0.365  -6.828  0.00  0.00    -0.110 NA
ATOM     10  S   UNL     1     -15.021  -0.851  -5.961  0.00  0.00    +0.041 S 
ENDBRANCH   3   5
BRANCH   1  11
ATOM     11  C   UNL     1     -14.744  -2.307  -1.448  0.00  0.00    +0.144 C 
BRANCH  11  16
ATOM     12  C   UNL     1     -14.340  -6.612  -1.897  0.00  0.00    +0.004 A 
ATOM     13  C   UNL     1     -15.559  -5.981  -2.136  0.00  0.00    +0.020 A 
ATOM     14  C   UNL     1     -15.678  -4.594  -1.990  0.00  0.00    +0.048 A 
ATOM     15 CL   UNL     1     -17.227  -3.898  -2.325  0.00  0.00    -0.083 Cl
ATOM     16  C   UNL     1     -14.582  -3.801  -1.596  0.00  0.00    +0.023 A 
ATOM     17  C   UNL     1     -13.368  -4.466  -1.380  0.00  0.00    +0.129 A 
ATOM     18  F   UNL     1     -12.268  -3.778  -1.039  0.00  0.00    -0.205 F 
ATOM     19  C   UNL     1     -13.241  -5.848  -1.520  0.00  0.00    +0.039 A 
ENDBRANCH  11  16
ENDBRANCH   1  11
TORSDOF 3
ENDMDL
MODEL 8
REMARK VINA RESULT:      -6.0      4.525      6.634
REMARK  Name = min_compound920.pdb
REMARK  4 active torsions:
REMARK  status: ('A' for Active; 'I' for Inactive)
REMARK    1  A    between atoms: _6  and  _16
REMARK    2  A    between atoms: _10  and  _11
REMARK    3  A    between atoms: _12  and  _18
REMARK    4  A    between atoms: _16  and  _17
REMARK                            x       y       z     vdW  Elec       q    Type
REMARK                         _______ _______ _______ _____ _____    ______ ____
ROOT
ATOM      1  N   UNL     1     -13.538   2.991 -17.244  0.00  0.00    -0.307 N 
ATOM      2  H   UNL     1     -13.731   2.637 -18.170  0.00  0.00    +0.149 HD
ATOM      3  C   UNL     1     -14.069   4.208 -16.860  0.00  0.00    +0.254 C 
ATOM      4  O   UNL     1     -14.083   4.530 -15.673  0.00  0.00    -0.270 OA
ENDROOT
BRANCH   3   5
ATOM      5  C   UNL     1     -14.617   5.028 -17.915  0.00  0.00    +0.117 A 
ATOM      6  C   UNL     1     -14.275   6.254 -18.478  0.00  0.00    +0.081 A 
ATOM      7  C   UNL     1     -13.169   7.174 -18.113  0.00  0.00    +0.069 C 
ATOM      8  N   UNL     1     -15.107   6.666 -19.517  0.00  0.00    -0.146 NA
ATOM      9  N   UNL     1     -16.084   5.809 -19.745  0.00  0.00    -0.110 NA
ATOM     10  S   UNL     1     -16.040   4.492 -18.724  0.00  0.00    +0.041 S 
ENDBRANCH   3   5
BRANCH   1  11
ATOM     11  C   UNL     1     -13.083   2.044 -16.248  0.00  0.00    +0.144 C 
BRANCH  11  16
ATOM     12  C   UNL     1      -9.600  -0.309 -17.352  0.00  0.00    +0.004 A 
ATOM     13  C   UNL     1      -9.550   1.083 -17.357  0.00  0.00    +0.020 A 
ATOM     14  C   UNL     1     -10.678   1.832 -16.998  0.00  0.00    +0.048 A 
ATOM     15 CL   UNL     1     -10.516   3.555 -17.017  0.00  0.00    -0.083 Cl
ATOM     16  C   UNL     1     -11.886   1.207 -16.629  0.00  0.00    +0.023 A 
ATOM     17  C   UNL     1     -11.895  -0.193 -16.620  0.00  0.00    +0.129 A 
ATOM     18  F   UNL     1     -12.995  -0.863 -16.245  0.00  0.00    -0.205 F 
ATOM     19  C   UNL     1     -10.777  -0.947 -16.979  0.00  0.00    +0.039 A 
ENDBRANCH  11  16
ENDBRANCH   1  11
TORSDOF 3
ENDMDL
MODEL 9
REMARK VINA RESULT:      -6.0     10.244     11.442
REMARK  Name = min_compound920.pdb
REMARK  4 active torsions:
REMARK  status: ('A' for Active; 'I' for Inactive)
REMARK    1  A    between atoms: _6  and  _16
REMARK    2  A    between atoms: _10  and  _11
REMARK    3  A    between atoms: _12  and  _18
REMARK    4  A    between atoms: _16  and  _17
REMARK                            x       y       z     vdW  Elec       q    Type
REMARK                         _______ _______ _______ _____ _____    ______ ____
ROOT
ATOM      1  N   UNL     1     -17.290   3.406  -4.615  0.00  0.00    -0.307 N 
ATOM      2  H   UNL     1     -18.226   3.286  -4.977  0.00  0.00    +0.149 HD
ATOM      3  C   UNL     1     -16.799   4.682  -4.415  0.00  0.00    +0.254 C 
ATOM      4  O   UNL     1     -15.792   4.857  -3.731  0.00  0.00    -0.270 OA
ENDROOT
BRANCH   3   5
ATOM      5  C   UNL     1     -17.549   5.758  -5.021  0.00  0.00    +0.117 A 
ATOM      6  C   UNL     1     -18.117   6.939  -4.552  0.00  0.00    +0.081 A 
ATOM      7  C   UNL     1     -18.149   7.475  -3.168  0.00  0.00    +0.069 C 
ATOM      8  N   UNL     1     -18.754   7.702  -5.528  0.00  0.00    -0.146 NA
ATOM      9  N   UNL     1     -18.712   7.130  -6.716  0.00  0.00    -0.110 NA
ATOM     10  S   UNL     1     -17.917   5.665  -6.701  0.00  0.00    +0.041 S 
ENDBRANCH   3   5
BRANCH   1  11
ATOM     11  C   UNL     1     -16.685   2.275  -3.944  0.00  0.00    +0.144 C 
BRANCH  11  16
ATOM     12  C   UNL     1     -14.338  -0.410  -6.428  0.00  0.00    +0.004 A 
ATOM     13  C   UNL     1     -13.720   0.428  -5.503  0.00  0.00    +0.020 A 
ATOM     14  C   UNL     1     -14.486   1.288  -4.706  0.00  0.00    +0.048 A 
ATOM     15 CL   UNL     1     -13.631   2.278  -3.573  0.00  0.00    -0.083 Cl
ATOM     16  C   UNL     1     -15.889   1.336  -4.818  0.00  0.00    +0.023 A 
ATOM     17  C   UNL     1     -16.479   0.469  -5.747  0.00  0.00    +0.129 A 
ATOM     18  F   UNL     1     -17.812   0.428  -5.887  0.00  0.00    -0.205 F 
ATOM     19  C   UNL     1     -15.724  -0.389  -6.547  0.00  0.00    +0.039 A 
ENDBRANCH  11  16
ENDBRANCH   1  11
TORSDOF 3
ENDMDL
