MODEL 1
REMARK VINA RESULT:      -3.6      0.000      0.000
REMARK  Name = min_compound6.pdb
REMARK  1 active torsions:
REMARK  status: ('A' for Active; 'I' for Inactive)
REMARK    1  A    between atoms: _1  and  _8
REMARK                            x       y       z     vdW  Elec       q    Type
REMARK                         _______ _______ _______ _____ _____    ______ ____
ROOT
ATOM      1  C   UNL     1     -10.203   0.053 -15.995  0.00  0.00    +0.208 C 
ATOM      2  S   UNL     1     -11.761  -0.278 -16.665  0.00  0.00    -0.048 S 
ATOM      3  S   UNL     1     -12.368   1.676 -16.675  0.00  0.00    -0.031 S 
ATOM      4  C   UNL     1     -10.890   2.329 -15.998  0.00  0.00    +0.119 C 
ATOM      5  S   UNL     1     -10.608   3.936 -15.690  0.00  0.00    -0.027 S 
ATOM      6  N   UNL     1      -9.960   1.360 -15.739  0.00  0.00    -0.308 N 
ATOM      7  H   UNL     1      -9.063   1.607 -15.347  0.00  0.00    +0.149 HD
ENDROOT
BRANCH   1   8
ATOM      8  N   UNL     1      -9.321  -0.842 -15.746  0.00  0.00    -0.304 NA
ATOM      9  H   UNL     1      -8.510  -0.415 -15.298  0.00  0.00    +0.121 HD
ATOM     10  H   UNL     1      -9.744  -1.535 -15.116  0.00  0.00    +0.121 HD
ENDBRANCH   1   8
TORSDOF 1
ENDMDL
MODEL 2
REMARK VINA RESULT:      -3.6      1.585      3.235
REMARK  Name = min_compound6.pdb
REMARK  1 active torsions:
REMARK  status: ('A' for Active; 'I' for Inactive)
REMARK    1  A    between atoms: _1  and  _8
REMARK                            x       y       z     vdW  Elec       q    Type
REMARK                         _______ _______ _______ _____ _____    ______ ____
ROOT
ATOM      1  C   UNL     1     -10.630   2.939 -15.959  0.00  0.00    +0.208 C 
ATOM      2  S   UNL     1     -11.714   2.935 -17.305  0.00  0.00    -0.048 S 
ATOM      3  S   UNL     1     -11.603   0.916 -17.615  0.00  0.00    -0.031 S 
ATOM      4  C   UNL     1     -10.488   0.591 -16.303  0.00  0.00    +0.119 C 
ATOM      5  S   UNL     1      -9.895  -0.907 -15.901  0.00  0.00    -0.027 S 
ATOM      6  N   UNL     1     -10.140   1.723 -15.620  0.00  0.00    -0.308 N 
ATOM      7  H   UNL     1      -9.502   1.671 -14.840  0.00  0.00    +0.149 HD
ENDROOT
BRANCH   1   8
ATOM      8  N   UNL     1     -10.294   3.990 -15.308  0.00  0.00    -0.304 NA
ATOM      9  H   UNL     1     -11.117   4.568 -15.135  0.00  0.00    +0.121 HD
ATOM     10  H   UNL     1      -9.883   3.691 -14.415  0.00  0.00    +0.121 HD
ENDBRANCH   1   8
TORSDOF 1
ENDMDL
MODEL 3
REMARK VINA RESULT:      -3.5      2.661      3.673
REMARK  Name = min_compound6.pdb
REMARK  1 active torsions:
REMARK  status: ('A' for Active; 'I' for Inactive)
REMARK    1  A    between atoms: _1  and  _8
REMARK                            x       y       z     vdW  Elec       q    Type
REMARK                         _______ _______ _______ _____ _____    ______ ____
ROOT
ATOM      1  C   UNL     1     -12.342   1.600 -18.445  0.00  0.00    +0.208 C 
ATOM      2  S   UNL     1     -12.455   2.896 -17.307  0.00  0.00    -0.048 S 
ATOM      3  S   UNL     1     -11.258   2.006 -15.906  0.00  0.00    -0.031 S 
ATOM      4  C   UNL     1     -10.949   0.550 -16.831  0.00  0.00    +0.119 C 
ATOM      5  S   UNL     1     -10.007  -0.721 -16.325  0.00  0.00    -0.027 S 
ATOM      6  N   UNL     1     -11.577   0.558 -18.045  0.00  0.00    -0.308 N 
ATOM      7  H   UNL     1     -11.478  -0.225 -18.674  0.00  0.00    +0.149 HD
ENDROOT
BRANCH   1   8
ATOM      8  N   UNL     1     -12.923   1.592 -19.586  0.00  0.00    -0.304 NA
ATOM      9  H   UNL     1     -12.496   2.288 -20.198  0.00  0.00    +0.121 HD
ATOM     10  H   UNL     1     -12.810   0.655 -19.992  0.00  0.00    +0.121 HD
ENDBRANCH   1   8
TORSDOF 1
ENDMDL
MODEL 4
REMARK VINA RESULT:      -3.5     12.885     13.042
REMARK  Name = min_compound6.pdb
REMARK  1 active torsions:
REMARK  status: ('A' for Active; 'I' for Inactive)
REMARK    1  A    between atoms: _1  and  _8
REMARK                            x       y       z     vdW  Elec       q    Type
REMARK                         _______ _______ _______ _____ _____    ______ ____
ROOT
ATOM      1  C   UNL     1     -14.651  -1.249  -5.382  0.00  0.00    +0.208 C 
ATOM      2  S   UNL     1     -14.044   0.364  -5.247  0.00  0.00    -0.048 S 
ATOM      3  S   UNL     1     -14.017   0.373  -3.201  0.00  0.00    -0.031 S 
ATOM      4  C   UNL     1     -14.627  -1.259  -3.005  0.00  0.00    +0.119 C 
ATOM      5  S   UNL     1     -14.893  -2.011  -1.548  0.00  0.00    -0.027 S 
ATOM      6  N   UNL     1     -14.872  -1.874  -4.201  0.00  0.00    -0.308 N 
ATOM      7  H   UNL     1     -15.227  -2.818  -4.225  0.00  0.00    +0.149 HD
ENDROOT
BRANCH   1   8
ATOM      8  N   UNL     1     -14.885  -1.839  -6.494  0.00  0.00    -0.304 NA
ATOM      9  H   UNL     1     -15.849  -2.173  -6.513  0.00  0.00    +0.121 HD
ATOM     10  H   UNL     1     -14.736  -1.159  -7.250  0.00  0.00    +0.121 HD
ENDBRANCH   1   8
TORSDOF 1
ENDMDL
MODEL 5
REMARK VINA RESULT:      -3.4      2.416      2.475
REMARK  Name = min_compound6.pdb
REMARK  1 active torsions:
REMARK  status: ('A' for Active; 'I' for Inactive)
REMARK    1  A    between atoms: _1  and  _8
REMARK                            x       y       z     vdW  Elec       q    Type
REMARK                         _______ _______ _______ _____ _____    ______ ____
ROOT
ATOM      1  C   UNL     1     -12.189  -0.321 -16.515  0.00  0.00    +0.208 C 
ATOM      2  S   UNL     1     -10.503  -0.640 -16.724  0.00  0.00    -0.048 S 
ATOM      3  S   UNL     1     -10.041   1.253 -17.348  0.00  0.00    -0.031 S 
ATOM      4  C   UNL     1     -11.672   1.884 -17.238  0.00  0.00    +0.119 C 
ATOM      5  S   UNL     1     -12.122   3.440 -17.603  0.00  0.00    -0.027 S 
ATOM      6  N   UNL     1     -12.568   0.945 -16.809  0.00  0.00    -0.308 N 
ATOM      7  H   UNL     1     -13.544   1.183 -16.704  0.00  0.00    +0.149 HD
ENDROOT
BRANCH   1   8
ATOM      8  N   UNL     1     -13.041  -1.189 -16.115  0.00  0.00    -0.304 NA
ATOM      9  H   UNL     1     -12.889  -2.074 -16.600  0.00  0.00    +0.121 HD
ATOM     10  H   UNL     1     -12.910  -1.318 -15.104  0.00  0.00    +0.121 HD
ENDBRANCH   1   8
TORSDOF 1
ENDMDL
MODEL 6
REMARK VINA RESULT:      -3.4     10.778     10.933
REMARK  Name = min_compound6.pdb
REMARK  1 active torsions:
REMARK  status: ('A' for Active; 'I' for Inactive)
REMARK    1  A    between atoms: _1  and  _8
REMARK                            x       y       z     vdW  Elec       q    Type
REMARK                         _______ _______ _______ _____ _____    ______ ____
ROOT
ATOM      1  C   UNL     1     -15.166  -0.920  -6.517  0.00  0.00    +0.208 C 
ATOM      2  S   UNL     1     -14.420   0.600  -6.861  0.00  0.00    -0.048 S 
ATOM      3  S   UNL     1     -16.139   1.497  -7.514  0.00  0.00    -0.031 S 
ATOM      4  C   UNL     1     -17.174   0.103  -7.272  0.00  0.00    +0.119 C 
ATOM      5  S   UNL     1     -18.802   0.054  -7.596  0.00  0.00    -0.027 S 
ATOM      6  N   UNL     1     -16.493  -0.974  -6.777  0.00  0.00    -0.308 N 
ATOM      7  H   UNL     1     -16.977  -1.841  -6.593  0.00  0.00    +0.149 HD
ENDROOT
BRANCH   1   8
ATOM      8  N   UNL     1     -14.543  -1.939  -6.053  0.00  0.00    -0.304 NA
ATOM      9  H   UNL     1     -13.549  -1.868  -6.274  0.00  0.00    +0.121 HD
ATOM     10  H   UNL     1     -14.674  -1.952  -5.034  0.00  0.00    +0.121 HD
ENDBRANCH   1   8
TORSDOF 1
ENDMDL
MODEL 7
REMARK VINA RESULT:      -3.4     11.619     11.634
REMARK  Name = min_compound6.pdb
REMARK  1 active torsions:
REMARK  status: ('A' for Active; 'I' for Inactive)
REMARK    1  A    between atoms: _1  and  _8
REMARK                            x       y       z     vdW  Elec       q    Type
REMARK                         _______ _______ _______ _____ _____    ______ ____
ROOT
ATOM      1  C   UNL     1     -14.946  -0.732  -5.844  0.00  0.00    +0.208 C 
ATOM      2  S   UNL     1     -16.411  -0.015  -6.414  0.00  0.00    -0.048 S 
ATOM      3  S   UNL     1     -16.135   1.758  -5.431  0.00  0.00    -0.031 S 
ATOM      4  C   UNL     1     -14.606   1.320  -4.694  0.00  0.00    +0.119 C 
ATOM      5  S   UNL     1     -13.711   2.300  -3.696  0.00  0.00    -0.027 S 
ATOM      6  N   UNL     1     -14.206   0.056  -5.029  0.00  0.00    -0.308 N 
ATOM      7  H   UNL     1     -13.340  -0.316  -4.669  0.00  0.00    +0.149 HD
ENDROOT
BRANCH   1   8
ATOM      8  N   UNL     1     -14.557  -1.915  -6.148  0.00  0.00    -0.304 NA
ATOM      9  H   UNL     1     -15.366  -2.526  -6.266  0.00  0.00    +0.121 HD
ATOM     10  H   UNL     1     -14.031  -1.858  -7.029  0.00  0.00    +0.121 HD
ENDBRANCH   1   8
TORSDOF 1
ENDMDL
MODEL 8
REMARK VINA RESULT:      -3.3      2.168      2.591
REMARK  Name = min_compound6.pdb
REMARK  1 active torsions:
REMARK  status: ('A' for Active; 'I' for Inactive)
REMARK    1  A    between atoms: _1  and  _8
REMARK                            x       y       z     vdW  Elec       q    Type
REMARK                         _______ _______ _______ _____ _____    ______ ____
ROOT
ATOM      1  C   UNL     1     -10.593   0.078 -17.340  0.00  0.00    +0.208 C 
ATOM      2  S   UNL     1     -10.397   1.015 -15.901  0.00  0.00    -0.048 S 
ATOM      3  S   UNL     1     -11.764   2.442 -16.432  0.00  0.00    -0.031 S 
ATOM      4  C   UNL     1     -12.185   1.725 -17.975  0.00  0.00    +0.119 C 
ATOM      5  S   UNL     1     -13.294   2.344 -19.046  0.00  0.00    -0.027 S 
ATOM      6  N   UNL     1     -11.494   0.572 -18.222  0.00  0.00    -0.308 N 
ATOM      7  H   UNL     1     -11.646   0.061 -19.079  0.00  0.00    +0.149 HD
ENDROOT
BRANCH   1   8
ATOM      8  N   UNL     1      -9.954  -1.004 -17.587  0.00  0.00    -0.304 NA
ATOM      9  H   UNL     1     -10.133  -1.688 -16.851  0.00  0.00    +0.121 HD
ATOM     10  H   UNL     1     -10.285  -1.368 -18.489  0.00  0.00    +0.121 HD
ENDBRANCH   1   8
TORSDOF 1
ENDMDL
MODEL 9
REMARK VINA RESULT:      -3.3      2.071      3.074
REMARK  Name = min_compound6.pdb
REMARK  1 active torsions:
REMARK  status: ('A' for Active; 'I' for Inactive)
REMARK    1  A    between atoms: _1  and  _8
REMARK                            x       y       z     vdW  Elec       q    Type
REMARK                         _______ _______ _______ _____ _____    ______ ____
ROOT
ATOM      1  C   UNL     1     -10.646   2.172 -15.901  0.00  0.00    +0.208 C 
ATOM      2  S   UNL     1     -10.473   3.883 -15.731  0.00  0.00    -0.048 S 
ATOM      3  S   UNL     1     -11.712   4.343 -17.292  0.00  0.00    -0.031 S 
ATOM      4  C   UNL     1     -12.089   2.685 -17.719  0.00  0.00    +0.119 C 
ATOM      5  S   UNL     1     -13.092   2.222 -18.959  0.00  0.00    -0.027 S 
ATOM      6  N   UNL     1     -11.461   1.780 -16.909  0.00  0.00    -0.308 N 
ATOM      7  H   UNL     1     -11.596   0.790 -17.051  0.00  0.00    +0.149 HD
ENDROOT
BRANCH   1   8
ATOM      8  N   UNL     1     -10.065   1.311 -15.151  0.00  0.00    -0.304 NA
ATOM      9  H   UNL     1      -9.874   1.721 -14.236  0.00  0.00    +0.121 HD
ATOM     10  H   UNL     1     -10.694   0.505 -15.049  0.00  0.00    +0.121 HD
ENDBRANCH   1   8
TORSDOF 1
ENDMDL
