MODEL 1
REMARK VINA RESULT:      -7.2      0.000      0.000
REMARK  Name = min_compound963.pdb
REMARK  3 active torsions:
REMARK  status: ('A' for Active; 'I' for Inactive)
REMARK    1  A    between atoms: _7  and  _9
REMARK    2  A    between atoms: _11  and  _18
REMARK    3  A    between atoms: _15  and  _16
REMARK                            x       y       z     vdW  Elec       q    Type
REMARK                         _______ _______ _______ _____ _____    ______ ____
ROOT
ATOM      1  C   UNL     1     -14.934   1.015  -6.562  0.00  0.00    +0.250 C 
ATOM      2  N   UNL     1     -16.224   1.428  -6.828  0.00  0.00    -0.281 N 
ATOM      3  H   UNL     1     -16.926   1.225  -6.127  0.00  0.00    +0.155 HD
ATOM      4  O   UNL     1     -13.978   1.189  -7.312  0.00  0.00    -0.270 OA
ENDROOT
BRANCH   1  10
ATOM      5 CL   UNL     1     -14.044  -2.271  -1.565  0.00  0.00    -0.083 Cl
ATOM      6  C   UNL     1     -14.286  -1.304  -2.966  0.00  0.00    +0.042 A 
ATOM      7  C   UNL     1     -14.038   0.064  -2.915  0.00  0.00    +0.040 A 
ATOM      8  C   UNL     1     -14.231   0.867  -4.051  0.00  0.00    +0.054 A 
ATOM      9 CL   UNL     1     -13.879   2.547  -3.825  0.00  0.00    -0.083 Cl
ATOM     10  C   UNL     1     -14.678   0.300  -5.259  0.00  0.00    +0.055 A 
ATOM     11  C   UNL     1     -14.920  -1.092  -5.276  0.00  0.00    +0.016 A 
ATOM     12  C   UNL     1     -14.727  -1.888  -4.143  0.00  0.00    +0.021 A 
ENDBRANCH   1  10
BRANCH   2  13
ATOM     13  C   UNL     1     -16.703   2.109  -7.969  0.00  0.00    +0.035 A 
ATOM     14  C   UNL     1     -18.081   2.033  -8.219  0.00  0.00    +0.023 A 
ATOM     15  C   UNL     1     -18.646   2.674  -9.324  0.00  0.00    +0.003 A 
ATOM     16  C   UNL     1     -17.837   3.401 -10.193  0.00  0.00    +0.017 A 
ATOM     17  C   UNL     1     -16.464   3.484  -9.955  0.00  0.00    +0.026 A 
ATOM     18  C   UNL     1     -15.900   2.840  -8.847  0.00  0.00    +0.040 A 
BRANCH  17  19
ATOM     19  C   UNL     1     -15.632   4.231 -10.849  0.00  0.00    -0.070 C 
ATOM     20  C   UNL     1     -14.932   4.857 -11.598  0.00  0.00    +0.009 C 
ENDBRANCH  17  19
ENDBRANCH   2  13
TORSDOF 3
ENDMDL
MODEL 2
REMARK VINA RESULT:      -7.2      8.028     10.329
REMARK  Name = min_compound963.pdb
REMARK  3 active torsions:
REMARK  status: ('A' for Active; 'I' for Inactive)
REMARK    1  A    between atoms: _7  and  _9
REMARK    2  A    between atoms: _11  and  _18
REMARK    3  A    between atoms: _15  and  _16
REMARK                            x       y       z     vdW  Elec       q    Type
REMARK                         _______ _______ _______ _____ _____    ______ ____
ROOT
ATOM      1  C   UNL     1     -14.882   3.287 -15.392  0.00  0.00    +0.250 C 
ATOM      2  N   UNL     1     -13.582   3.586 -15.038  0.00  0.00    -0.281 N 
ATOM      3  H   UNL     1     -13.448   4.123 -14.191  0.00  0.00    +0.155 HD
ATOM      4  O   UNL     1     -15.203   2.645 -16.389  0.00  0.00    -0.270 OA
ENDROOT
BRANCH   1  10
ATOM      5 CL   UNL     1     -19.387   4.795 -11.651  0.00  0.00    -0.083 Cl
ATOM      6  C   UNL     1     -18.102   4.405 -12.725  0.00  0.00    +0.042 A 
ATOM      7  C   UNL     1     -17.474   5.413 -13.450  0.00  0.00    +0.040 A 
ATOM      8  C   UNL     1     -16.423   5.109 -14.331  0.00  0.00    +0.054 A 
ATOM      9 CL   UNL     1     -15.747   6.472 -15.158  0.00  0.00    -0.083 Cl
ATOM     10  C   UNL     1     -15.989   3.781 -14.494  0.00  0.00    +0.055 A 
ATOM     11  C   UNL     1     -16.648   2.781 -13.742  0.00  0.00    +0.016 A 
ATOM     12  C   UNL     1     -17.694   3.087 -12.867  0.00  0.00    +0.021 A 
ENDBRANCH   1  10
BRANCH   2  13
ATOM     13  C   UNL     1     -12.393   3.235 -15.714  0.00  0.00    +0.035 A 
ATOM     14  C   UNL     1     -11.787   4.237 -16.488  0.00  0.00    +0.023 A 
ATOM     15  C   UNL     1     -10.608   3.983 -17.193  0.00  0.00    +0.003 A 
ATOM     16  C   UNL     1     -10.020   2.723 -17.131  0.00  0.00    +0.017 A 
ATOM     17  C   UNL     1     -10.613   1.718 -16.364  0.00  0.00    +0.026 A 
ATOM     18  C   UNL     1     -11.795   1.975 -15.659  0.00  0.00    +0.040 A 
BRANCH  17  19
ATOM     19  C   UNL     1     -10.008   0.422 -16.301  0.00  0.00    -0.070 C 
ATOM     20  C   UNL     1      -9.501  -0.665 -16.250  0.00  0.00    +0.009 C 
ENDBRANCH  17  19
ENDBRANCH   2  13
TORSDOF 3
ENDMDL
MODEL 3
REMARK VINA RESULT:      -7.1      2.173      2.859
REMARK  Name = min_compound963.pdb
REMARK  3 active torsions:
REMARK  status: ('A' for Active; 'I' for Inactive)
REMARK    1  A    between atoms: _7  and  _9
REMARK    2  A    between atoms: _11  and  _18
REMARK    3  A    between atoms: _15  and  _16
REMARK                            x       y       z     vdW  Elec       q    Type
REMARK                         _______ _______ _______ _____ _____    ______ ____
ROOT
ATOM      1  C   UNL     1     -16.552   1.514  -8.017  0.00  0.00    +0.250 C 
ATOM      2  N   UNL     1     -16.586   2.708  -8.708  0.00  0.00    -0.281 N 
ATOM      3  H   UNL     1     -16.085   3.489  -8.303  0.00  0.00    +0.155 HD
ATOM      4  O   UNL     1     -17.110   0.482  -8.380  0.00  0.00    -0.270 OA
ENDROOT
BRANCH   1  10
ATOM      5 CL   UNL     1     -13.114   1.036  -3.066  0.00  0.00    -0.083 Cl
ATOM      6  C   UNL     1     -14.116   1.196  -4.454  0.00  0.00    +0.042 A 
ATOM      7  C   UNL     1     -15.263   1.983  -4.394  0.00  0.00    +0.040 A 
ATOM      8  C   UNL     1     -16.091   2.122  -5.519  0.00  0.00    +0.054 A 
ATOM      9 CL   UNL     1     -17.478   3.133  -5.283  0.00  0.00    -0.083 Cl
ATOM     10  C   UNL     1     -15.775   1.470  -6.725  0.00  0.00    +0.055 A 
ATOM     11  C   UNL     1     -14.603   0.679  -6.751  0.00  0.00    +0.016 A 
ATOM     12  C   UNL     1     -13.781   0.542  -5.630  0.00  0.00    +0.021 A 
ENDBRANCH   1  10
BRANCH   2  13
ATOM     13  C   UNL     1     -17.241   2.991  -9.927  0.00  0.00    +0.035 A 
ATOM     14  C   UNL     1     -18.508   3.588  -9.841  0.00  0.00    +0.023 A 
ATOM     15  C   UNL     1     -19.231   3.904 -10.993  0.00  0.00    +0.003 A 
ATOM     16  C   UNL     1     -18.695   3.625 -12.248  0.00  0.00    +0.017 A 
ATOM     17  C   UNL     1     -17.436   3.031 -12.346  0.00  0.00    +0.026 A 
ATOM     18  C   UNL     1     -16.712   2.716 -11.190  0.00  0.00    +0.040 A 
BRANCH  17  19
ATOM     19  C   UNL     1     -16.885   2.745 -13.636  0.00  0.00    -0.070 C 
ATOM     20  C   UNL     1     -16.420   2.506 -14.718  0.00  0.00    +0.009 C 
ENDBRANCH  17  19
ENDBRANCH   2  13
TORSDOF 3
ENDMDL
MODEL 4
REMARK VINA RESULT:      -7.1      7.751     10.090
REMARK  Name = min_compound963.pdb
REMARK  3 active torsions:
REMARK  status: ('A' for Active; 'I' for Inactive)
REMARK    1  A    between atoms: _7  and  _9
REMARK    2  A    between atoms: _11  and  _18
REMARK    3  A    between atoms: _15  and  _16
REMARK                            x       y       z     vdW  Elec       q    Type
REMARK                         _______ _______ _______ _____ _____    ______ ____
ROOT
ATOM      1  C   UNL     1     -13.292   3.807 -15.763  0.00  0.00    +0.250 C 
ATOM      2  N   UNL     1     -14.026   3.587 -14.615  0.00  0.00    -0.281 N 
ATOM      3  H   UNL     1     -13.877   2.709 -14.135  0.00  0.00    +0.155 HD
ATOM      4  O   UNL     1     -13.363   4.820 -16.453  0.00  0.00    -0.270 OA
ENDROOT
BRANCH   1  10
ATOM      5 CL   UNL     1      -9.845  -0.812 -17.592  0.00  0.00    -0.083 Cl
ATOM      6  C   UNL     1     -10.792   0.524 -17.067  0.00  0.00    +0.042 A 
ATOM      7  C   UNL     1     -10.172   1.723 -16.731  0.00  0.00    +0.040 A 
ATOM      8  C   UNL     1     -10.933   2.823 -16.301  0.00  0.00    +0.054 A 
ATOM      9 CL   UNL     1     -10.015   4.241 -15.920  0.00  0.00    -0.083 Cl
ATOM     10  C   UNL     1     -12.334   2.729 -16.204  0.00  0.00    +0.055 A 
ATOM     11  C   UNL     1     -12.931   1.496 -16.553  0.00  0.00    +0.016 A 
ATOM     12  C   UNL     1     -12.171   0.403 -16.981  0.00  0.00    +0.021 A 
ENDBRANCH   1  10
BRANCH   2  13
ATOM     13  C   UNL     1     -14.976   4.441 -14.012  0.00  0.00    +0.035 A 
ATOM     14  C   UNL     1     -15.782   5.199 -14.874  0.00  0.00    +0.023 A 
ATOM     15  C   UNL     1     -16.749   6.071 -14.370  0.00  0.00    +0.003 A 
ATOM     16  C   UNL     1     -16.922   6.195 -12.993  0.00  0.00    +0.017 A 
ATOM     17  C   UNL     1     -16.126   5.446 -12.125  0.00  0.00    +0.026 A 
ATOM     18  C   UNL     1     -15.157   4.572 -12.634  0.00  0.00    +0.040 A 
BRANCH  17  19
ATOM     19  C   UNL     1     -16.303   5.573 -10.710  0.00  0.00    -0.070 C 
ATOM     20  C   UNL     1     -16.450   5.680  -9.523  0.00  0.00    +0.009 C 
ENDBRANCH  17  19
ENDBRANCH   2  13
TORSDOF 3
ENDMDL
MODEL 5
REMARK VINA RESULT:      -7.0      4.800      6.316
REMARK  Name = min_compound963.pdb
REMARK  3 active torsions:
REMARK  status: ('A' for Active; 'I' for Inactive)
REMARK    1  A    between atoms: _7  and  _9
REMARK    2  A    between atoms: _11  and  _18
REMARK    3  A    between atoms: _15  and  _16
REMARK                            x       y       z     vdW  Elec       q    Type
REMARK                         _______ _______ _______ _____ _____    ______ ____
ROOT
ATOM      1  C   UNL     1     -15.002  -2.115  -1.894  0.00  0.00    +0.250 C 
ATOM      2  N   UNL     1     -14.454  -1.413  -2.949  0.00  0.00    -0.281 N 
ATOM      3  H   UNL     1     -13.873  -1.933  -3.595  0.00  0.00    +0.155 HD
ATOM      4  O   UNL     1     -15.725  -1.624  -1.031  0.00  0.00    -0.270 OA
ENDROOT
BRANCH   1  10
ATOM      5 CL   UNL     1     -13.299  -7.892  -1.358  0.00  0.00    -0.083 Cl
ATOM      6  C   UNL     1     -13.820  -6.261  -1.521  0.00  0.00    +0.042 A 
ATOM      7  C   UNL     1     -15.137  -5.986  -1.876  0.00  0.00    +0.040 A 
ATOM      8  C   UNL     1     -15.577  -4.659  -2.012  0.00  0.00    +0.054 A 
ATOM      9 CL   UNL     1     -17.241  -4.484  -2.458  0.00  0.00    -0.083 Cl
ATOM     10  C   UNL     1     -14.693  -3.587  -1.791  0.00  0.00    +0.055 A 
ATOM     11  C   UNL     1     -13.363  -3.902  -1.432  0.00  0.00    +0.016 A 
ATOM     12  C   UNL     1     -12.928  -5.223  -1.297  0.00  0.00    +0.021 A 
ENDBRANCH   1  10
BRANCH   2  13
ATOM     13  C   UNL     1     -14.599  -0.041  -3.252  0.00  0.00    +0.035 A 
ATOM     14  C   UNL     1     -13.434   0.740  -3.221  0.00  0.00    +0.023 A 
ATOM     15  C   UNL     1     -13.479   2.106  -3.506  0.00  0.00    +0.003 A 
ATOM     16  C   UNL     1     -14.693   2.709  -3.826  0.00  0.00    +0.017 A 
ATOM     17  C   UNL     1     -15.859   1.943  -3.860  0.00  0.00    +0.026 A 
ATOM     18  C   UNL     1     -15.811   0.573  -3.574  0.00  0.00    +0.040 A 
BRANCH  17  19
ATOM     19  C   UNL     1     -17.107   2.563  -4.189  0.00  0.00    -0.070 C 
ATOM     20  C   UNL     1     -18.153   3.084  -4.463  0.00  0.00    +0.009 C 
ENDBRANCH  17  19
ENDBRANCH   2  13
TORSDOF 3
ENDMDL
MODEL 6
REMARK VINA RESULT:      -7.0     10.674     11.222
REMARK  Name = min_compound963.pdb
REMARK  3 active torsions:
REMARK  status: ('A' for Active; 'I' for Inactive)
REMARK    1  A    between atoms: _7  and  _9
REMARK    2  A    between atoms: _11  and  _18
REMARK    3  A    between atoms: _15  and  _16
REMARK                            x       y       z     vdW  Elec       q    Type
REMARK                         _______ _______ _______ _____ _____    ______ ____
ROOT
ATOM      1  C   UNL     1     -13.378   3.738 -16.435  0.00  0.00    +0.250 C 
ATOM      2  N   UNL     1     -13.092   4.776 -17.298  0.00  0.00    -0.281 N 
ATOM      3  H   UNL     1     -12.223   4.719 -17.815  0.00  0.00    +0.155 HD
ATOM      4  O   UNL     1     -14.389   3.666 -15.742  0.00  0.00    -0.270 OA
ENDROOT
BRANCH   1  10
ATOM      5 CL   UNL     1      -9.743  -1.087 -16.175  0.00  0.00    -0.083 Cl
ATOM      6  C   UNL     1     -10.746   0.308 -16.237  0.00  0.00    +0.042 A 
ATOM      7  C   UNL     1     -10.224   1.553 -15.898  0.00  0.00    +0.040 A 
ATOM      8  C   UNL     1     -11.032   2.701 -15.944  0.00  0.00    +0.054 A 
ATOM      9 CL   UNL     1     -10.235   4.172 -15.495  0.00  0.00    -0.083 Cl
ATOM     10  C   UNL     1     -12.381   2.611 -16.333  0.00  0.00    +0.055 A 
ATOM     11  C   UNL     1     -12.879   1.332 -16.670  0.00  0.00    +0.016 A 
ATOM     12  C   UNL     1     -12.073   0.191 -16.623  0.00  0.00    +0.021 A 
ENDBRANCH   1  10
BRANCH   2  13
ATOM     13  C   UNL     1     -13.864   5.929 -17.560  0.00  0.00    +0.035 A 
ATOM     14  C   UNL     1     -14.202   6.173 -18.900  0.00  0.00    +0.023 A 
ATOM     15  C   UNL     1     -14.963   7.288 -19.255  0.00  0.00    +0.003 A 
ATOM     16  C   UNL     1     -15.397   8.175 -18.273  0.00  0.00    +0.017 A 
ATOM     17  C   UNL     1     -15.067   7.944 -16.937  0.00  0.00    +0.026 A 
ATOM     18  C   UNL     1     -14.304   6.825 -16.582  0.00  0.00    +0.040 A 
BRANCH  17  19
ATOM     19  C   UNL     1     -15.513   8.855 -15.926  0.00  0.00    -0.070 C 
ATOM     20  C   UNL     1     -15.888   9.619 -15.079  0.00  0.00    +0.009 C 
ENDBRANCH  17  19
ENDBRANCH   2  13
TORSDOF 3
ENDMDL
MODEL 7
REMARK VINA RESULT:      -6.9      9.021      9.999
REMARK  Name = min_compound963.pdb
REMARK  3 active torsions:
REMARK  status: ('A' for Active; 'I' for Inactive)
REMARK    1  A    between atoms: _7  and  _9
REMARK    2  A    between atoms: _11  and  _18
REMARK    3  A    between atoms: _15  and  _16
REMARK                            x       y       z     vdW  Elec       q    Type
REMARK                         _______ _______ _______ _____ _____    ______ ____
ROOT
ATOM      1  C   UNL     1     -13.757   2.978 -16.126  0.00  0.00    +0.250 C 
ATOM      2  N   UNL     1     -14.158   3.421 -14.882  0.00  0.00    -0.281 N 
ATOM      3  H   UNL     1     -13.612   3.114 -14.087  0.00  0.00    +0.155 HD
ATOM      4  O   UNL     1     -14.316   3.264 -17.182  0.00  0.00    -0.270 OA
ENDROOT
BRANCH   1  10
ATOM      5 CL   UNL     1      -9.217  -0.992 -16.547  0.00  0.00    -0.083 Cl
ATOM      6  C   UNL     1     -10.481   0.165 -16.417  0.00  0.00    +0.042 A 
ATOM      7  C   UNL     1     -10.187   1.476 -16.053  0.00  0.00    +0.040 A 
ATOM      8  C   UNL     1     -11.210   2.432 -15.943  0.00  0.00    +0.054 A 
ATOM      9 CL   UNL     1     -10.682   4.015 -15.481  0.00  0.00    -0.083 Cl
ATOM     10  C   UNL     1     -12.548   2.080 -16.199  0.00  0.00    +0.055 A 
ATOM     11  C   UNL     1     -12.812   0.741 -16.566  0.00  0.00    +0.016 A 
ATOM     12  C   UNL     1     -11.792  -0.209 -16.675  0.00  0.00    +0.021 A 
ENDBRANCH   1  10
BRANCH   2  13
ATOM     13  C   UNL     1     -15.249   4.261 -14.566  0.00  0.00    +0.035 A 
ATOM     14  C   UNL     1     -16.408   3.637 -14.082  0.00  0.00    +0.023 A 
ATOM     15  C   UNL     1     -17.537   4.386 -13.743  0.00  0.00    +0.003 A 
ATOM     16  C   UNL     1     -17.519   5.771 -13.885  0.00  0.00    +0.017 A 
ATOM     17  C   UNL     1     -16.372   6.404 -14.366  0.00  0.00    +0.026 A 
ATOM     18  C   UNL     1     -15.241   5.651 -14.705  0.00  0.00    +0.040 A 
BRANCH  17  19
ATOM     19  C   UNL     1     -16.354   7.828 -14.512  0.00  0.00    -0.070 C 
ATOM     20  C   UNL     1     -16.341   9.023 -14.635  0.00  0.00    +0.009 C 
ENDBRANCH  17  19
ENDBRANCH   2  13
TORSDOF 3
ENDMDL
MODEL 8
REMARK VINA RESULT:      -6.7      3.401      7.603
REMARK  Name = min_compound963.pdb
REMARK  3 active torsions:
REMARK  status: ('A' for Active; 'I' for Inactive)
REMARK    1  A    between atoms: _7  and  _9
REMARK    2  A    between atoms: _11  and  _18
REMARK    3  A    between atoms: _15  and  _16
REMARK                            x       y       z     vdW  Elec       q    Type
REMARK                         _______ _______ _______ _____ _____    ______ ____
ROOT
ATOM      1  C   UNL     1     -16.917   2.723  -8.802  0.00  0.00    +0.250 C 
ATOM      2  N   UNL     1     -15.719   2.082  -8.561  0.00  0.00    -0.281 N 
ATOM      3  H   UNL     1     -14.958   2.275  -9.199  0.00  0.00    +0.155 HD
ATOM      4  O   UNL     1     -17.928   2.591  -8.118  0.00  0.00    -0.270 OA
ENDROOT
BRANCH   1  10
ATOM      5 CL   UNL     1     -17.260   6.045 -13.842  0.00  0.00    -0.083 Cl
ATOM      6  C   UNL     1     -17.160   5.135 -12.387  0.00  0.00    +0.042 A 
ATOM      7  C   UNL     1     -17.034   5.790 -11.166  0.00  0.00    +0.040 A 
ATOM      8  C   UNL     1     -16.951   5.059  -9.970  0.00  0.00    +0.054 A 
ATOM      9 CL   UNL     1     -16.798   6.019  -8.537  0.00  0.00    -0.083 Cl
ATOM     10  C   UNL     1     -16.994   3.652  -9.987  0.00  0.00    +0.055 A 
ATOM     11  C   UNL     1     -17.122   3.019 -11.244  0.00  0.00    +0.016 A 
ATOM     12  C   UNL     1     -17.204   3.749 -12.433  0.00  0.00    +0.021 A 
ENDBRANCH   1  10
BRANCH   2  13
ATOM     13  C   UNL     1     -15.409   1.175  -7.523  0.00  0.00    +0.035 A 
ATOM     14  C   UNL     1     -15.821  -0.154  -7.701  0.00  0.00    +0.023 A 
ATOM     15  C   UNL     1     -15.560  -1.121  -6.728  0.00  0.00    +0.003 A 
ATOM     16  C   UNL     1     -14.882  -0.770  -5.564  0.00  0.00    +0.017 A 
ATOM     17  C   UNL     1     -14.466   0.549  -5.375  0.00  0.00    +0.026 A 
ATOM     18  C   UNL     1     -14.730   1.518  -6.352  0.00  0.00    +0.040 A 
BRANCH  17  19
ATOM     19  C   UNL     1     -13.769   0.911  -4.178  0.00  0.00    -0.070 C 
ATOM     20  C   UNL     1     -13.185   1.212  -3.173  0.00  0.00    +0.009 C 
ENDBRANCH  17  19
ENDBRANCH   2  13
TORSDOF 3
ENDMDL
MODEL 9
REMARK VINA RESULT:      -6.7      3.598      5.291
REMARK  Name = min_compound963.pdb
REMARK  3 active torsions:
REMARK  status: ('A' for Active; 'I' for Inactive)
REMARK    1  A    between atoms: _7  and  _9
REMARK    2  A    between atoms: _11  and  _18
REMARK    3  A    between atoms: _15  and  _16
REMARK                            x       y       z     vdW  Elec       q    Type
REMARK                         _______ _______ _______ _____ _____    ______ ____
ROOT
ATOM      1  C   UNL     1     -15.073  -2.077  -3.036  0.00  0.00    +0.250 C 
ATOM      2  N   UNL     1     -14.832  -2.082  -4.395  0.00  0.00    -0.281 N 
ATOM      3  H   UNL     1     -14.466  -2.937  -4.794  0.00  0.00    +0.155 HD
ATOM      4  O   UNL     1     -15.515  -1.117  -2.410  0.00  0.00    -0.270 OA
ENDROOT
BRANCH   1  10
ATOM      5 CL   UNL     1     -13.412  -6.957   0.124  0.00  0.00    -0.083 Cl
ATOM      6  C   UNL     1     -13.921  -5.585  -0.779  0.00  0.00    +0.042 A 
ATOM      7  C   UNL     1     -15.229  -5.510  -1.247  0.00  0.00    +0.040 A 
ATOM      8  C   UNL     1     -15.659  -4.395  -1.986  0.00  0.00    +0.054 A 
ATOM      9 CL   UNL     1     -17.313  -4.452  -2.497  0.00  0.00    -0.083 Cl
ATOM     10  C   UNL     1     -14.774  -3.337  -2.263  0.00  0.00    +0.055 A 
ATOM     11  C   UNL     1     -13.453  -3.445  -1.772  0.00  0.00    +0.016 A 
ATOM     12  C   UNL     1     -13.028  -4.556  -1.038  0.00  0.00    +0.021 A 
ENDBRANCH   1  10
BRANCH   2  13
ATOM     13  C   UNL     1     -15.032  -1.032  -5.319  0.00  0.00    +0.035 A 
ATOM     14  C   UNL     1     -13.911  -0.252  -5.642  0.00  0.00    +0.023 A 
ATOM     15  C   UNL     1     -14.012   0.808  -6.546  0.00  0.00    +0.003 A 
ATOM     16  C   UNL     1     -15.238   1.101  -7.138  0.00  0.00    +0.017 A 
ATOM     17  C   UNL     1     -16.360   0.332  -6.825  0.00  0.00    +0.026 A 
ATOM     18  C   UNL     1     -16.257  -0.730  -5.918  0.00  0.00    +0.040 A 
BRANCH  17  19
ATOM     19  C   UNL     1     -17.620   0.634  -7.434  0.00  0.00    -0.070 C 
ATOM     20  C   UNL     1     -18.677   0.886  -7.947  0.00  0.00    +0.009 C 
ENDBRANCH  17  19
ENDBRANCH   2  13
TORSDOF 3
ENDMDL
