MODEL 1
REMARK VINA RESULT:      -7.1      0.000      0.000
REMARK  Name = min_compound954.pdb
REMARK  6 active torsions:
REMARK  status: ('A' for Active; 'I' for Inactive)
REMARK    1  A    between atoms: _1  and  _4
REMARK    2  A    between atoms: _1  and  _14
REMARK    3  A    between atoms: _2  and  _3
REMARK    4  A    between atoms: _2  and  _15
REMARK    5  A    between atoms: _9  and  _12
REMARK    6  A    between atoms: _13  and  _16
REMARK                            x       y       z     vdW  Elec       q    Type
REMARK                         _______ _______ _______ _____ _____    ______ ____
ROOT
ATOM      1  C   UNL     1     -14.440   6.089 -19.332  0.00  0.00    +0.163 A 
ATOM      2  C   UNL     1     -14.219   4.738 -19.630  0.00  0.00    +0.067 A 
ATOM      3  C   UNL     1     -13.350   4.046 -18.792  0.00  0.00    +0.098 A 
ATOM      4  C   UNL     1     -12.913   2.716 -18.792  0.00  0.00    +0.204 C 
ATOM      5  C   UNL     1     -12.004   2.601 -17.676  0.00  0.00    +0.261 C 
ATOM      6  N   UNL     1     -11.933   3.783 -17.058  0.00  0.00    -0.209 N 
ATOM      7  O   UNL     1     -11.187   4.110 -16.064  0.00  0.00    -0.549 OA
ATOM      8  C   UNL     1     -12.701   4.630 -17.694  0.00  0.00    +0.226 A 
ATOM      9  C   UNL     1     -12.911   5.983 -17.384  0.00  0.00    +0.128 A 
ATOM     10  C   UNL     1     -13.809   6.684 -18.205  0.00  0.00    +0.168 A 
ENDROOT
BRANCH   5  11
ATOM     11  C   UNL     1     -11.255   1.301 -17.285  0.00  0.00    +0.051 A 
ATOM     12  C   UNL     1     -11.918   0.233 -16.668  0.00  0.00    +0.014 A 
ATOM     13  C   UNL     1     -11.240  -0.939 -16.311  0.00  0.00    +0.001 A 
ATOM     14  C   UNL     1      -9.879  -1.066 -16.570  0.00  0.00    +0.000 A 
ATOM     15  C   UNL     1      -9.201  -0.018 -17.184  0.00  0.00    +0.001 A 
ATOM     16  C   UNL     1      -9.885   1.153 -17.535  0.00  0.00    +0.014 A 
ENDBRANCH   5  11
BRANCH   1  17
ATOM     17  O   UNL     1     -15.254   6.913 -20.083  0.00  0.00    -0.491 OA
ATOM     18  C   UNL     1     -14.788   7.219 -21.391  0.00  0.00    +0.277 C 
ENDBRANCH   1  17
BRANCH   4  19
ATOM     19  O   UNL     1     -13.340   1.797 -19.656  0.00  0.00    -0.501 OA
ATOM     20  H   UNL     1     -13.864   1.080 -19.357  0.00  0.00    +0.292 HD
ENDBRANCH   4  19
BRANCH  10  21
ATOM     21  O   UNL     1     -14.014   8.011 -17.869  0.00  0.00    -0.491 OA
ATOM     22  C   UNL     1     -14.902   8.121 -16.761  0.00  0.00    +0.277 C 
ENDBRANCH  10  21
TORSDOF 4
ENDMDL
MODEL 2
REMARK VINA RESULT:      -7.0      0.591      2.594
REMARK  Name = min_compound954.pdb
REMARK  6 active torsions:
REMARK  status: ('A' for Active; 'I' for Inactive)
REMARK    1  A    between atoms: _1  and  _4
REMARK    2  A    between atoms: _1  and  _14
REMARK    3  A    between atoms: _2  and  _3
REMARK    4  A    between atoms: _2  and  _15
REMARK    5  A    between atoms: _9  and  _12
REMARK    6  A    between atoms: _13  and  _16
REMARK                            x       y       z     vdW  Elec       q    Type
REMARK                         _______ _______ _______ _____ _____    ______ ____
ROOT
ATOM      1  C   UNL     1     -13.860   6.853 -18.022  0.00  0.00    +0.163 A 
ATOM      2  C   UNL     1     -12.939   6.208 -17.187  0.00  0.00    +0.067 A 
ATOM      3  C   UNL     1     -12.667   4.872 -17.468  0.00  0.00    +0.098 A 
ATOM      4  C   UNL     1     -11.817   3.943 -16.857  0.00  0.00    +0.204 C 
ATOM      5  C   UNL     1     -11.980   2.715 -17.600  0.00  0.00    +0.261 C 
ATOM      6  N   UNL     1     -12.853   2.924 -18.588  0.00  0.00    -0.209 N 
ATOM      7  O   UNL     1     -13.314   2.068 -19.428  0.00  0.00    -0.549 OA
ATOM      8  C   UNL     1     -13.264   4.165 -18.522  0.00  0.00    +0.226 A 
ATOM      9  C   UNL     1     -14.189   4.798 -19.367  0.00  0.00    +0.128 A 
ATOM     10  C   UNL     1     -14.449   6.154 -19.110  0.00  0.00    +0.168 A 
ENDROOT
BRANCH   5  11
ATOM     11  C   UNL     1     -11.241   1.390 -17.277  0.00  0.00    +0.051 A 
ATOM     12  C   UNL     1     -11.908   0.305 -16.696  0.00  0.00    +0.014 A 
ATOM     13  C   UNL     1     -11.240  -0.890 -16.400  0.00  0.00    +0.001 A 
ATOM     14  C   UNL     1      -9.884  -1.022 -16.685  0.00  0.00    +0.000 A 
ATOM     15  C   UNL     1      -9.203   0.043 -17.265  0.00  0.00    +0.001 A 
ATOM     16  C   UNL     1      -9.877   1.236 -17.554  0.00  0.00    +0.014 A 
ENDBRANCH   5  11
BRANCH   1  17
ATOM     17  O   UNL     1     -14.250   8.167 -17.855  0.00  0.00    -0.491 OA
ATOM     18  C   UNL     1     -15.075   8.430 -16.727  0.00  0.00    +0.277 C 
ENDBRANCH   1  17
BRANCH   4  19
ATOM     19  O   UNL     1     -11.018   4.232 -15.833  0.00  0.00    -0.501 OA
ATOM     20  H   UNL     1     -10.101   4.365 -15.976  0.00  0.00    +0.292 HD
ENDBRANCH   4  19
BRANCH  10  21
ATOM     21  O   UNL     1     -15.351   6.761 -19.966  0.00  0.00    -0.491 OA
ATOM     22  C   UNL     1     -14.761   6.995 -21.240  0.00  0.00    +0.277 C 
ENDBRANCH  10  21
TORSDOF 4
ENDMDL
MODEL 3
REMARK VINA RESULT:      -6.5      2.077      2.725
REMARK  Name = min_compound954.pdb
REMARK  6 active torsions:
REMARK  status: ('A' for Active; 'I' for Inactive)
REMARK    1  A    between atoms: _1  and  _4
REMARK    2  A    between atoms: _1  and  _14
REMARK    3  A    between atoms: _2  and  _3
REMARK    4  A    between atoms: _2  and  _15
REMARK    5  A    between atoms: _9  and  _12
REMARK    6  A    between atoms: _13  and  _16
REMARK                            x       y       z     vdW  Elec       q    Type
REMARK                         _______ _______ _______ _____ _____    ______ ____
ROOT
ATOM      1  C   UNL     1     -14.878   7.476 -16.945  0.00  0.00    +0.163 A 
ATOM      2  C   UNL     1     -13.752   6.781 -17.404  0.00  0.00    +0.067 A 
ATOM      3  C   UNL     1     -13.568   5.492 -16.912  0.00  0.00    +0.098 A 
ATOM      4  C   UNL     1     -12.577   4.533 -17.154  0.00  0.00    +0.204 C 
ATOM      5  C   UNL     1     -12.927   3.393 -16.338  0.00  0.00    +0.261 C 
ATOM      6  N   UNL     1     -14.057   3.668 -15.682  0.00  0.00    -0.209 N 
ATOM      7  O   UNL     1     -14.659   2.940 -14.810  0.00  0.00    -0.549 OA
ATOM      8  C   UNL     1     -14.437   4.879 -15.999  0.00  0.00    +0.226 A 
ATOM      9  C   UNL     1     -15.569   5.563 -15.528  0.00  0.00    +0.128 A 
ATOM     10  C   UNL     1     -15.781   6.853 -16.040  0.00  0.00    +0.168 A 
ENDROOT
BRANCH   5  11
ATOM     11  C   UNL     1     -12.105   2.081 -16.266  0.00  0.00    +0.051 A 
ATOM     12  C   UNL     1     -12.597   0.881 -16.794  0.00  0.00    +0.014 A 
ATOM     13  C   UNL     1     -11.856  -0.306 -16.724  0.00  0.00    +0.001 A 
ATOM     14  C   UNL     1     -10.601  -0.312 -16.125  0.00  0.00    +0.000 A 
ATOM     15  C   UNL     1     -10.092   0.870 -15.596  0.00  0.00    +0.001 A 
ATOM     16  C   UNL     1     -10.840   2.051 -15.665  0.00  0.00    +0.014 A 
ENDBRANCH   5  11
BRANCH   1  17
ATOM     17  O   UNL     1     -15.182   8.769 -17.320  0.00  0.00    -0.491 OA
ATOM     18  C   UNL     1     -16.042   8.903 -18.444  0.00  0.00    +0.277 C 
ENDBRANCH   1  17
BRANCH   4  19
ATOM     19  O   UNL     1     -11.576   4.702 -18.015  0.00  0.00    -0.501 OA
ATOM     20  H   UNL     1     -11.299   3.991 -18.558  0.00  0.00    +0.292 HD
ENDBRANCH   4  19
BRANCH  10  21
ATOM     21  O   UNL     1     -16.912   7.502 -15.575  0.00  0.00    -0.491 OA
ATOM     22  C   UNL     1     -16.749   7.889 -14.214  0.00  0.00    +0.277 C 
ENDBRANCH  10  21
TORSDOF 4
ENDMDL
MODEL 4
REMARK VINA RESULT:      -6.5      2.229      2.987
REMARK  Name = min_compound954.pdb
REMARK  6 active torsions:
REMARK  status: ('A' for Active; 'I' for Inactive)
REMARK    1  A    between atoms: _1  and  _4
REMARK    2  A    between atoms: _1  and  _14
REMARK    3  A    between atoms: _2  and  _3
REMARK    4  A    between atoms: _2  and  _15
REMARK    5  A    between atoms: _9  and  _12
REMARK    6  A    between atoms: _13  and  _16
REMARK                            x       y       z     vdW  Elec       q    Type
REMARK                         _______ _______ _______ _____ _____    ______ ____
ROOT
ATOM      1  C   UNL     1     -15.085   6.631 -16.940  0.00  0.00    +0.163 A 
ATOM      2  C   UNL     1     -13.764   6.206 -17.133  0.00  0.00    +0.067 A 
ATOM      3  C   UNL     1     -13.502   4.857 -16.913  0.00  0.00    +0.098 A 
ATOM      4  C   UNL     1     -12.325   4.106 -17.013  0.00  0.00    +0.204 C 
ATOM      5  C   UNL     1     -12.688   2.757 -16.645  0.00  0.00    +0.261 C 
ATOM      6  N   UNL     1     -13.994   2.725 -16.369  0.00  0.00    -0.209 N 
ATOM      7  O   UNL     1     -14.686   1.730 -15.942  0.00  0.00    -0.549 OA
ATOM      8  C   UNL     1     -14.478   3.933 -16.513  0.00  0.00    +0.226 A 
ATOM      9  C   UNL     1     -15.805   4.343 -16.314  0.00  0.00    +0.128 A 
ATOM     10  C   UNL     1     -16.088   5.697 -16.562  0.00  0.00    +0.168 A 
ENDROOT
BRANCH   5  11
ATOM     11  C   UNL     1     -11.698   1.565 -16.596  0.00  0.00    +0.051 A 
ATOM     12  C   UNL     1     -10.785   1.416 -15.544  0.00  0.00    +0.014 A 
ATOM     13  C   UNL     1      -9.887   0.342 -15.503  0.00  0.00    +0.001 A 
ATOM     14  C   UNL     1      -9.889  -0.611 -16.516  0.00  0.00    +0.000 A 
ATOM     15  C   UNL     1     -10.789  -0.484 -17.570  0.00  0.00    +0.001 A 
ATOM     16  C   UNL     1     -11.681   0.595 -17.607  0.00  0.00    +0.014 A 
ENDBRANCH   5  11
BRANCH   1  17
ATOM     17  O   UNL     1     -15.495   7.940 -17.093  0.00  0.00    -0.491 OA
ATOM     18  C   UNL     1     -15.389   8.763 -15.939  0.00  0.00    +0.277 C 
ENDBRANCH   1  17
BRANCH   4  19
ATOM     19  O   UNL     1     -11.160   4.605 -17.421  0.00  0.00    -0.501 OA
ATOM     20  H   UNL     1     -10.379   4.093 -17.347  0.00  0.00    +0.292 HD
ENDBRANCH   4  19
BRANCH  10  21
ATOM     21  O   UNL     1     -17.406   6.075 -16.375  0.00  0.00    -0.491 OA
ATOM     22  C   UNL     1     -17.909   5.565 -15.145  0.00  0.00    +0.277 C 
ENDBRANCH  10  21
TORSDOF 4
ENDMDL
MODEL 5
REMARK VINA RESULT:      -6.3      2.240      2.706
REMARK  Name = min_compound954.pdb
REMARK  6 active torsions:
REMARK  status: ('A' for Active; 'I' for Inactive)
REMARK    1  A    between atoms: _1  and  _4
REMARK    2  A    between atoms: _1  and  _14
REMARK    3  A    between atoms: _2  and  _3
REMARK    4  A    between atoms: _2  and  _15
REMARK    5  A    between atoms: _9  and  _12
REMARK    6  A    between atoms: _13  and  _16
REMARK                            x       y       z     vdW  Elec       q    Type
REMARK                         _______ _______ _______ _____ _____    ______ ____
ROOT
ATOM      1  C   UNL     1     -16.186   5.865 -16.542  0.00  0.00    +0.163 A 
ATOM      2  C   UNL     1     -15.990   4.503 -16.278  0.00  0.00    +0.067 A 
ATOM      3  C   UNL     1     -14.699   4.012 -16.453  0.00  0.00    +0.098 A 
ATOM      4  C   UNL     1     -14.155   2.733 -16.281  0.00  0.00    +0.204 C 
ATOM      5  C   UNL     1     -12.759   2.850 -16.632  0.00  0.00    +0.261 C 
ATOM      6  N   UNL     1     -12.506   4.117 -16.967  0.00  0.00    -0.209 N 
ATOM      7  O   UNL     1     -11.403   4.614 -17.401  0.00  0.00    -0.549 OA
ATOM      8  C   UNL     1     -13.619   4.801 -16.874  0.00  0.00    +0.226 A 
ATOM      9  C   UNL     1     -13.800   6.166 -17.144  0.00  0.00    +0.128 A 
ATOM     10  C   UNL     1     -15.092   6.680 -16.943  0.00  0.00    +0.168 A 
ENDROOT
BRANCH   5  11
ATOM     11  C   UNL     1     -11.747   1.675 -16.607  0.00  0.00    +0.051 A 
ATOM     12  C   UNL     1     -10.815   1.537 -15.571  0.00  0.00    +0.014 A 
ATOM     13  C   UNL     1      -9.897   0.479 -15.551  0.00  0.00    +0.001 A 
ATOM     14  C   UNL     1      -9.899  -0.468 -16.570  0.00  0.00    +0.000 A 
ATOM     15  C   UNL     1     -10.819  -0.351 -17.608  0.00  0.00    +0.001 A 
ATOM     16  C   UNL     1     -11.730   0.713 -17.624  0.00  0.00    +0.014 A 
ENDBRANCH   5  11
BRANCH   1  17
ATOM     17  O   UNL     1     -17.411   6.492 -16.440  0.00  0.00    -0.491 OA
ATOM     18  C   UNL     1     -18.292   5.975 -15.451  0.00  0.00    +0.277 C 
ENDBRANCH   1  17
BRANCH   4  19
ATOM     19  O   UNL     1     -14.848   1.688 -15.833  0.00  0.00    -0.501 OA
ATOM     20  H   UNL     1     -15.756   1.783 -15.622  0.00  0.00    +0.292 HD
ENDBRANCH   4  19
BRANCH  10  21
ATOM     21  O   UNL     1     -15.243   8.031 -17.198  0.00  0.00    -0.491 OA
ATOM     22  C   UNL     1     -15.252   8.777 -15.985  0.00  0.00    +0.277 C 
ENDBRANCH  10  21
TORSDOF 4
ENDMDL
MODEL 6
REMARK VINA RESULT:      -6.3      2.123      3.362
REMARK  Name = min_compound954.pdb
REMARK  6 active torsions:
REMARK  status: ('A' for Active; 'I' for Inactive)
REMARK    1  A    between atoms: _1  and  _4
REMARK    2  A    between atoms: _1  and  _14
REMARK    3  A    between atoms: _2  and  _3
REMARK    4  A    between atoms: _2  and  _15
REMARK    5  A    between atoms: _9  and  _12
REMARK    6  A    between atoms: _13  and  _16
REMARK                            x       y       z     vdW  Elec       q    Type
REMARK                         _______ _______ _______ _____ _____    ______ ____
ROOT
ATOM      1  C   UNL     1     -15.929   7.300 -16.131  0.00  0.00    +0.163 A 
ATOM      2  C   UNL     1     -15.630   6.155 -15.381  0.00  0.00    +0.067 A 
ATOM      3  C   UNL     1     -14.651   5.309 -15.895  0.00  0.00    +0.098 A 
ATOM      4  C   UNL     1     -14.111   4.108 -15.419  0.00  0.00    +0.204 C 
ATOM      5  C   UNL     1     -13.135   3.700 -16.402  0.00  0.00    +0.261 C 
ATOM      6  N   UNL     1     -13.099   4.614 -17.375  0.00  0.00    -0.209 N 
ATOM      7  O   UNL     1     -12.411   4.584 -18.460  0.00  0.00    -0.549 OA
ATOM      8  C   UNL     1     -13.973   5.548 -17.099  0.00  0.00    +0.226 A 
ATOM      9  C   UNL     1     -14.263   6.690 -17.862  0.00  0.00    +0.128 A 
ATOM     10  C   UNL     1     -15.228   7.566 -17.339  0.00  0.00    +0.168 A 
ENDROOT
BRANCH   5  11
ATOM     11  C   UNL     1     -12.284   2.407 -16.309  0.00  0.00    +0.051 A 
ATOM     12  C   UNL     1     -11.063   2.385 -15.624  0.00  0.00    +0.014 A 
ATOM     13  C   UNL     1     -10.292   1.219 -15.544  0.00  0.00    +0.001 A 
ATOM     14  C   UNL     1     -10.733   0.045 -16.147  0.00  0.00    +0.000 A 
ATOM     15  C   UNL     1     -11.945   0.045 -16.831  0.00  0.00    +0.001 A 
ATOM     16  C   UNL     1     -12.709   1.216 -16.911  0.00  0.00    +0.014 A 
ENDBRANCH   5  11
BRANCH   1  17
ATOM     17  O   UNL     1     -16.892   8.219 -15.767  0.00  0.00    -0.491 OA
ATOM     18  C   UNL     1     -16.532   9.116 -14.724  0.00  0.00    +0.277 C 
ENDBRANCH   1  17
BRANCH   4  19
ATOM     19  O   UNL     1     -14.452   3.552 -14.259  0.00  0.00    -0.501 OA
ATOM     20  H   UNL     1     -13.892   2.914 -13.862  0.00  0.00    +0.292 HD
ENDBRANCH   4  19
BRANCH  10  21
ATOM     21  O   UNL     1     -15.485   8.694 -18.099  0.00  0.00    -0.491 OA
ATOM     22  C   UNL     1     -16.233   8.358 -19.264  0.00  0.00    +0.277 C 
ENDBRANCH  10  21
TORSDOF 4
ENDMDL
MODEL 7
REMARK VINA RESULT:      -6.1     11.035     11.967
REMARK  Name = min_compound954.pdb
REMARK  6 active torsions:
REMARK  status: ('A' for Active; 'I' for Inactive)
REMARK    1  A    between atoms: _1  and  _4
REMARK    2  A    between atoms: _1  and  _14
REMARK    3  A    between atoms: _2  and  _3
REMARK    4  A    between atoms: _2  and  _15
REMARK    5  A    between atoms: _9  and  _12
REMARK    6  A    between atoms: _13  and  _16
REMARK                            x       y       z     vdW  Elec       q    Type
REMARK                         _______ _______ _______ _____ _____    ______ ____
ROOT
ATOM      1  C   UNL     1     -17.659   3.067 -10.126  0.00  0.00    +0.163 A 
ATOM      2  C   UNL     1     -16.419   2.696  -9.590  0.00  0.00    +0.067 A 
ATOM      3  C   UNL     1     -16.430   2.146  -8.311  0.00  0.00    +0.098 A 
ATOM      4  C   UNL     1     -15.400   1.672  -7.489  0.00  0.00    +0.204 C 
ATOM      5  C   UNL     1     -16.041   1.234  -6.270  0.00  0.00    +0.261 C 
ATOM      6  N   UNL     1     -17.358   1.425  -6.386  0.00  0.00    -0.209 N 
ATOM      7  O   UNL     1     -18.265   1.224  -5.498  0.00  0.00    -0.549 OA
ATOM      8  C   UNL     1     -17.598   1.956  -7.558  0.00  0.00    +0.226 A 
ATOM      9  C   UNL     1     -18.848   2.324  -8.082  0.00  0.00    +0.128 A 
ATOM     10  C   UNL     1     -18.852   2.853  -9.383  0.00  0.00    +0.168 A 
ENDROOT
BRANCH   5  11
ATOM     11  C   UNL     1     -15.292   0.640  -5.050  0.00  0.00    +0.051 A 
ATOM     12  C   UNL     1     -15.506  -0.679  -4.633  0.00  0.00    +0.014 A 
ATOM     13  C   UNL     1     -14.832  -1.214  -3.527  0.00  0.00    +0.001 A 
ATOM     14  C   UNL     1     -13.924  -0.435  -2.818  0.00  0.00    +0.000 A 
ATOM     15  C   UNL     1     -13.695   0.878  -3.216  0.00  0.00    +0.001 A 
ATOM     16  C   UNL     1     -14.375   1.407  -4.320  0.00  0.00    +0.014 A 
ENDBRANCH   5  11
BRANCH   1  17
ATOM     17  O   UNL     1     -17.808   3.648 -11.370  0.00  0.00    -0.491 OA
ATOM     18  C   UNL     1     -17.161   2.983 -12.447  0.00  0.00    +0.277 C 
ENDBRANCH   1  17
BRANCH   4  19
ATOM     19  O   UNL     1     -14.122   1.625  -7.856  0.00  0.00    -0.501 OA
ATOM     20  H   UNL     1     -13.505   2.225  -7.484  0.00  0.00    +0.292 HD
ENDBRANCH   4  19
BRANCH  10  21
ATOM     21  O   UNL     1     -20.096   3.192  -9.885  0.00  0.00    -0.491 OA
ATOM     22  C   UNL     1     -20.588   4.373  -9.260  0.00  0.00    +0.277 C 
ENDBRANCH  10  21
TORSDOF 4
ENDMDL
MODEL 8
REMARK VINA RESULT:      -5.9     11.066     12.116
REMARK  Name = min_compound954.pdb
REMARK  6 active torsions:
REMARK  status: ('A' for Active; 'I' for Inactive)
REMARK    1  A    between atoms: _1  and  _4
REMARK    2  A    between atoms: _1  and  _14
REMARK    3  A    between atoms: _2  and  _3
REMARK    4  A    between atoms: _2  and  _15
REMARK    5  A    between atoms: _9  and  _12
REMARK    6  A    between atoms: _13  and  _16
REMARK                            x       y       z     vdW  Elec       q    Type
REMARK                         _______ _______ _______ _____ _____    ______ ____
ROOT
ATOM      1  C   UNL     1     -18.457   2.884  -9.528  0.00  0.00    +0.163 A 
ATOM      2  C   UNL     1     -18.708   2.280  -8.290  0.00  0.00    +0.067 A 
ATOM      3  C   UNL     1     -17.599   1.833  -7.575  0.00  0.00    +0.098 A 
ATOM      4  C   UNL     1     -17.483   1.202  -6.331  0.00  0.00    +0.204 C 
ATOM      5  C   UNL     1     -16.069   0.977  -6.137  0.00  0.00    +0.261 C 
ATOM      6  N   UNL     1     -15.409   1.464  -7.191  0.00  0.00    -0.209 N 
ATOM      7  O   UNL     1     -14.147   1.403  -7.428  0.00  0.00    -0.549 OA
ATOM      8  C   UNL     1     -16.280   1.957  -8.034  0.00  0.00    +0.226 A 
ATOM      9  C   UNL     1     -16.013   2.559  -9.274  0.00  0.00    +0.128 A 
ATOM     10  C   UNL     1     -17.121   3.040  -9.990  0.00  0.00    +0.168 A 
ENDROOT
BRANCH   5  11
ATOM     11  C   UNL     1     -15.454   0.286  -4.893  0.00  0.00    +0.051 A 
ATOM     12  C   UNL     1     -14.496   0.929  -4.098  0.00  0.00    +0.014 A 
ATOM     13  C   UNL     1     -13.937   0.302  -2.978  0.00  0.00    +0.001 A 
ATOM     14  C   UNL     1     -14.331  -0.985  -2.627  0.00  0.00    +0.000 A 
ATOM     15  C   UNL     1     -15.283  -1.641  -3.401  0.00  0.00    +0.001 A 
ATOM     16  C   UNL     1     -15.834  -1.010  -4.523  0.00  0.00    +0.014 A 
ENDBRANCH   5  11
BRANCH   1  17
ATOM     17  O   UNL     1     -19.452   3.353 -10.363  0.00  0.00    -0.491 OA
ATOM     18  C   UNL     1     -20.615   3.856  -9.720  0.00  0.00    +0.277 C 
ENDBRANCH   1  17
BRANCH   4  19
ATOM     19  O   UNL     1     -18.515   0.943  -5.532  0.00  0.00    -0.501 OA
ATOM     20  H   UNL     1     -19.326   1.397  -5.652  0.00  0.00    +0.292 HD
ENDBRANCH   4  19
BRANCH  10  21
ATOM     21  O   UNL     1     -16.833   3.644 -11.200  0.00  0.00    -0.491 OA
ATOM     22  C   UNL     1     -15.681   4.474 -11.089  0.00  0.00    +0.277 C 
ENDBRANCH  10  21
TORSDOF 4
ENDMDL
MODEL 9
REMARK VINA RESULT:      -5.8     12.858     14.248
REMARK  Name = min_compound954.pdb
REMARK  6 active torsions:
REMARK  status: ('A' for Active; 'I' for Inactive)
REMARK    1  A    between atoms: _1  and  _4
REMARK    2  A    between atoms: _1  and  _14
REMARK    3  A    between atoms: _2  and  _3
REMARK    4  A    between atoms: _2  and  _15
REMARK    5  A    between atoms: _9  and  _12
REMARK    6  A    between atoms: _13  and  _16
REMARK                            x       y       z     vdW  Elec       q    Type
REMARK                         _______ _______ _______ _____ _____    ______ ____
ROOT
ATOM      1  C   UNL     1     -16.178   2.020  -7.443  0.00  0.00    +0.163 A 
ATOM      2  C   UNL     1     -15.533   0.800  -7.200  0.00  0.00    +0.067 A 
ATOM      3  C   UNL     1     -15.741   0.220  -5.952  0.00  0.00    +0.098 A 
ATOM      4  C   UNL     1     -15.267  -0.969  -5.384  0.00  0.00    +0.204 C 
ATOM      5  C   UNL     1     -15.825  -1.017  -4.052  0.00  0.00    +0.261 C 
ATOM      6  N   UNL     1     -16.586   0.064  -3.868  0.00  0.00    -0.209 N 
ATOM      7  O   UNL     1     -17.202   0.422  -2.798  0.00  0.00    -0.549 OA
ATOM      8  C   UNL     1     -16.544   0.792  -4.955  0.00  0.00    +0.226 A 
ATOM      9  C   UNL     1     -17.195   2.014  -5.182  0.00  0.00    +0.128 A 
ATOM     10  C   UNL     1     -17.017   2.595  -6.449  0.00  0.00    +0.168 A 
ENDROOT
BRANCH   5  11
ATOM     11  C   UNL     1     -15.564  -2.156  -3.033  0.00  0.00    +0.051 A 
ATOM     12  C   UNL     1     -14.328  -2.291  -2.390  0.00  0.00    +0.014 A 
ATOM     13  C   UNL     1     -14.090  -3.323  -1.473  0.00  0.00    +0.001 A 
ATOM     14  C   UNL     1     -15.093  -4.241  -1.179  0.00  0.00    +0.000 A 
ATOM     15  C   UNL     1     -16.330  -4.124  -1.805  0.00  0.00    +0.001 A 
ATOM     16  C   UNL     1     -16.559  -3.092  -2.724  0.00  0.00    +0.014 A 
ENDBRANCH   5  11
BRANCH   1  17
ATOM     17  O   UNL     1     -16.049   2.729  -8.620  0.00  0.00    -0.491 OA
ATOM     18  C   UNL     1     -16.939   2.361  -9.666  0.00  0.00    +0.277 C 
ENDBRANCH   1  17
BRANCH   4  19
ATOM     19  O   UNL     1     -14.502  -1.845  -6.031  0.00  0.00    -0.501 OA
ATOM     20  H   UNL     1     -14.303  -2.673  -5.640  0.00  0.00    +0.292 HD
ENDBRANCH   4  19
BRANCH  10  21
ATOM     21  O   UNL     1     -17.682   3.790  -6.657  0.00  0.00    -0.491 OA
ATOM     22  C   UNL     1     -17.370   4.727  -5.630  0.00  0.00    +0.277 C 
ENDBRANCH  10  21
TORSDOF 4
ENDMDL
