MODEL 1
REMARK VINA RESULT:      -6.1      0.000      0.000
REMARK  Name = min_compound915.pdb
REMARK  4 active torsions:
REMARK  status: ('A' for Active; 'I' for Inactive)
REMARK    1  A    between atoms: _4  and  _6
REMARK    2  A    between atoms: _7  and  _18
REMARK    3  A    between atoms: _10  and  _11
REMARK    4  A    between atoms: _18  and  _19
REMARK                            x       y       z     vdW  Elec       q    Type
REMARK                         _______ _______ _______ _____ _____    ______ ____
ROOT
ATOM      1  C   UNL     1     -13.620   2.822 -18.075  0.00  0.00    +0.222 C 
ATOM      2  N   UNL     1     -12.800   1.759 -18.437  0.00  0.00    -0.227 N 
ATOM      3  N   UNL     1     -12.867   1.537 -19.782  0.00  0.00    -0.269 N 
ATOM      4  H   UNL     1     -12.529   0.759 -20.283  0.00  0.00    +0.170 HD
ATOM      5  C   UNL     1     -13.493   2.607 -20.265  0.00  0.00    +0.092 C 
ATOM      6  C   UNL     1     -13.967   3.455 -19.254  0.00  0.00    +0.001 C 
ENDROOT
BRANCH   2   7
ATOM      7  C   UNL     1     -11.843   1.009 -17.684  0.00  0.00    +0.052 A 
ATOM      8  C   UNL     1     -12.292  -0.062 -16.894  0.00  0.00    +0.044 A 
ATOM      9  C   UNL     1     -11.377  -0.824 -16.167  0.00  0.00    +0.043 A 
ATOM     10 CL   UNL     1     -11.935  -2.125 -15.187  0.00  0.00    -0.083 Cl
ATOM     11  C   UNL     1     -10.015  -0.542 -16.228  0.00  0.00    +0.020 A 
ATOM     12  C   UNL     1      -9.560   0.500 -17.034  0.00  0.00    +0.003 A 
ATOM     13  C   UNL     1     -10.469   1.268 -17.770  0.00  0.00    +0.025 A 
ENDBRANCH   2   7
BRANCH   1  17
ATOM     14  C   UNL     1     -15.287   3.141 -14.889  0.00  0.00    +0.019 A 
ATOM     15  C   UNL     1     -14.126   3.907 -14.668  0.00  0.00    +0.019 A 
ATOM     16  C   UNL     1     -13.387   3.862 -15.830  0.00  0.00    +0.088 A 
ATOM     17  N   UNL     1     -14.059   3.114 -16.782  0.00  0.00    -0.330 N 
ATOM     18  C   UNL     1     -15.213   2.654 -16.175  0.00  0.00    +0.088 A 
ENDBRANCH   1  17
BRANCH   6  19
ATOM     19  C   UNL     1     -14.771   4.613 -19.457  0.00  0.00    +0.114 C 
BRANCH  19  20
ATOM     20  N   UNL     1     -15.578   5.803 -19.669  0.00  0.00    -0.326 NA
ATOM     21  H   UNL     1     -16.486   5.682 -19.218  0.00  0.00    +0.119 HD
ATOM     22  H   UNL     1     -15.104   6.611 -19.268  0.00  0.00    +0.119 HD
ENDBRANCH  19  20
ENDBRANCH   6  19
TORSDOF 4
ENDMDL
MODEL 2
REMARK VINA RESULT:      -6.1      2.234      2.927
REMARK  Name = min_compound915.pdb
REMARK  4 active torsions:
REMARK  status: ('A' for Active; 'I' for Inactive)
REMARK    1  A    between atoms: _4  and  _6
REMARK    2  A    between atoms: _7  and  _18
REMARK    3  A    between atoms: _10  and  _11
REMARK    4  A    between atoms: _18  and  _19
REMARK                            x       y       z     vdW  Elec       q    Type
REMARK                         _______ _______ _______ _____ _____    ______ ____
ROOT
ATOM      1  C   UNL     1     -13.109   3.835 -19.445  0.00  0.00    +0.222 C 
ATOM      2  N   UNL     1     -12.881   2.590 -18.869  0.00  0.00    -0.227 N 
ATOM      3  N   UNL     1     -13.433   1.601 -19.629  0.00  0.00    -0.269 N 
ATOM      4  H   UNL     1     -13.568   0.656 -19.385  0.00  0.00    +0.170 HD
ATOM      5  C   UNL     1     -13.746   2.198 -20.776  0.00  0.00    +0.092 C 
ATOM      6  C   UNL     1     -13.548   3.585 -20.732  0.00  0.00    +0.001 C 
ENDROOT
BRANCH   2   7
ATOM      7  C   UNL     1     -12.077   2.204 -17.751  0.00  0.00    +0.052 A 
ATOM      8  C   UNL     1     -11.319   1.023 -17.837  0.00  0.00    +0.044 A 
ATOM      9  C   UNL     1     -10.510   0.636 -16.770  0.00  0.00    +0.043 A 
ATOM     10 CL   UNL     1      -9.597  -0.820 -16.874  0.00  0.00    -0.083 Cl
ATOM     11  C   UNL     1     -10.431   1.417 -15.620  0.00  0.00    +0.020 A 
ATOM     12  C   UNL     1     -11.157   2.604 -15.541  0.00  0.00    +0.003 A 
ATOM     13  C   UNL     1     -11.970   3.004 -16.606  0.00  0.00    +0.025 A 
ENDBRANCH   2   7
BRANCH   1  17
ATOM     14  C   UNL     1     -12.194   7.065 -18.116  0.00  0.00    +0.019 A 
ATOM     15  C   UNL     1     -13.487   6.906 -17.583  0.00  0.00    +0.019 A 
ATOM     16  C   UNL     1     -13.960   5.691 -18.027  0.00  0.00    +0.088 A 
ATOM     17  N   UNL     1     -12.994   5.070 -18.801  0.00  0.00    -0.330 N 
ATOM     18  C   UNL     1     -11.925   5.943 -18.869  0.00  0.00    +0.088 A 
ENDBRANCH   1  17
BRANCH   6  19
ATOM     19  C   UNL     1     -13.901   4.503 -21.762  0.00  0.00    +0.114 C 
BRANCH  19  20
ATOM     20  N   UNL     1     -14.275   5.434 -22.813  0.00  0.00    -0.326 NA
ATOM     21  H   UNL     1     -14.705   4.922 -23.584  0.00  0.00    +0.119 HD
ATOM     22  H   UNL     1     -14.940   6.114 -22.444  0.00  0.00    +0.119 HD
ENDBRANCH  19  20
ENDBRANCH   6  19
TORSDOF 4
ENDMDL
MODEL 3
REMARK VINA RESULT:      -6.0      2.467      5.097
REMARK  Name = min_compound915.pdb
REMARK  4 active torsions:
REMARK  status: ('A' for Active; 'I' for Inactive)
REMARK    1  A    between atoms: _4  and  _6
REMARK    2  A    between atoms: _7  and  _18
REMARK    3  A    between atoms: _10  and  _11
REMARK    4  A    between atoms: _18  and  _19
REMARK                            x       y       z     vdW  Elec       q    Type
REMARK                         _______ _______ _______ _____ _____    ______ ____
ROOT
ATOM      1  C   UNL     1     -14.077   2.797 -17.380  0.00  0.00    +0.222 C 
ATOM      2  N   UNL     1     -15.101   3.478 -16.729  0.00  0.00    -0.227 N 
ATOM      3  N   UNL     1     -15.848   4.189 -17.622  0.00  0.00    -0.269 N 
ATOM      4  H   UNL     1     -16.520   4.882 -17.429  0.00  0.00    +0.170 HD
ATOM      5  C   UNL     1     -15.464   3.736 -18.813  0.00  0.00    +0.092 C 
ATOM      6  C   UNL     1     -14.379   2.851 -18.727  0.00  0.00    +0.001 C 
ENDROOT
BRANCH   2   7
ATOM      7  C   UNL     1     -15.550   3.428 -15.373  0.00  0.00    +0.052 A 
ATOM      8  C   UNL     1     -14.939   4.265 -14.424  0.00  0.00    +0.044 A 
ATOM      9  C   UNL     1     -15.374   4.253 -13.100  0.00  0.00    +0.043 A 
ATOM     10 CL   UNL     1     -14.609   5.269 -11.939  0.00  0.00    -0.083 Cl
ATOM     11  C   UNL     1     -16.423   3.426 -12.707  0.00  0.00    +0.020 A 
ATOM     12  C   UNL     1     -17.054   2.615 -13.649  0.00  0.00    +0.003 A 
ATOM     13  C   UNL     1     -16.628   2.623 -14.981  0.00  0.00    +0.025 A 
ENDBRANCH   2   7
BRANCH   1  17
ATOM     14  C   UNL     1     -11.372   0.789 -16.081  0.00  0.00    +0.019 A 
ATOM     15  C   UNL     1     -10.964   2.080 -15.696  0.00  0.00    +0.019 A 
ATOM     16  C   UNL     1     -11.926   2.958 -16.144  0.00  0.00    +0.088 A 
ATOM     17  N   UNL     1     -12.940   2.256 -16.775  0.00  0.00    -0.330 N 
ATOM     18  C   UNL     1     -12.567   0.925 -16.753  0.00  0.00    +0.088 A 
ENDBRANCH   1  17
BRANCH   6  19
ATOM     19  C   UNL     1     -13.679   2.294 -19.835  0.00  0.00    +0.114 C 
BRANCH  19  20
ATOM     20  N   UNL     1     -12.974   1.714 -20.965  0.00  0.00    -0.326 NA
ATOM     21  H   UNL     1     -11.977   1.918 -20.886  0.00  0.00    +0.119 HD
ATOM     22  H   UNL     1     -13.115   0.704 -20.971  0.00  0.00    +0.119 HD
ENDBRANCH  19  20
ENDBRANCH   6  19
TORSDOF 4
ENDMDL
MODEL 4
REMARK VINA RESULT:      -6.0      1.810      2.338
REMARK  Name = min_compound915.pdb
REMARK  4 active torsions:
REMARK  status: ('A' for Active; 'I' for Inactive)
REMARK    1  A    between atoms: _4  and  _6
REMARK    2  A    between atoms: _7  and  _18
REMARK    3  A    between atoms: _10  and  _11
REMARK    4  A    between atoms: _18  and  _19
REMARK                            x       y       z     vdW  Elec       q    Type
REMARK                         _______ _______ _______ _____ _____    ______ ____
ROOT
ATOM      1  C   UNL     1     -15.153   3.349 -16.970  0.00  0.00    +0.222 C 
ATOM      2  N   UNL     1     -13.995   2.763 -17.470  0.00  0.00    -0.227 N 
ATOM      3  N   UNL     1     -14.042   2.694 -18.832  0.00  0.00    -0.269 N 
ATOM      4  H   UNL     1     -13.447   2.187 -19.431  0.00  0.00    +0.170 HD
ATOM      5  C   UNL     1     -15.071   3.466 -19.169  0.00  0.00    +0.092 C 
ATOM      6  C   UNL     1     -15.791   3.920 -18.055  0.00  0.00    +0.001 C 
ENDROOT
BRANCH   2   7
ATOM      7  C   UNL     1     -12.777   2.385 -16.824  0.00  0.00    +0.052 A 
ATOM      8  C   UNL     1     -12.360   1.044 -16.894  0.00  0.00    +0.044 A 
ATOM      9  C   UNL     1     -11.165   0.653 -16.292  0.00  0.00    +0.043 A 
ATOM     10 CL   UNL     1     -10.669  -0.993 -16.367  0.00  0.00    -0.083 Cl
ATOM     11  C   UNL     1     -10.368   1.584 -15.631  0.00  0.00    +0.020 A 
ATOM     12  C   UNL     1     -10.760   2.920 -15.583  0.00  0.00    +0.003 A 
ATOM     13  C   UNL     1     -11.956   3.324 -16.187  0.00  0.00    +0.025 A 
ENDBRANCH   2   7
BRANCH   1  17
ATOM     14  C   UNL     1     -15.955   3.777 -13.476  0.00  0.00    +0.019 A 
ATOM     15  C   UNL     1     -16.700   2.625 -13.789  0.00  0.00    +0.019 A 
ATOM     16  C   UNL     1     -16.481   2.351 -15.121  0.00  0.00    +0.088 A 
ATOM     17  N   UNL     1     -15.600   3.281 -15.648  0.00  0.00    -0.330 N 
ATOM     18  C   UNL     1     -15.310   4.168 -14.629  0.00  0.00    +0.088 A 
ENDBRANCH   1  17
BRANCH   6  19
ATOM     19  C   UNL     1     -17.003   4.666 -18.103  0.00  0.00    +0.114 C 
BRANCH  19  20
ATOM     20  N   UNL     1     -18.235   5.435 -18.140  0.00  0.00    -0.326 NA
ATOM     21  H   UNL     1     -18.878   5.016 -18.812  0.00  0.00    +0.119 HD
ATOM     22  H   UNL     1     -18.664   5.434 -17.214  0.00  0.00    +0.119 HD
ENDBRANCH  19  20
ENDBRANCH   6  19
TORSDOF 4
ENDMDL
MODEL 5
REMARK VINA RESULT:      -5.9     12.421     14.431
REMARK  Name = min_compound915.pdb
REMARK  4 active torsions:
REMARK  status: ('A' for Active; 'I' for Inactive)
REMARK    1  A    between atoms: _4  and  _6
REMARK    2  A    between atoms: _7  and  _18
REMARK    3  A    between atoms: _10  and  _11
REMARK    4  A    between atoms: _18  and  _19
REMARK                            x       y       z     vdW  Elec       q    Type
REMARK                         _______ _______ _______ _____ _____    ______ ____
ROOT
ATOM      1  C   UNL     1     -16.149  -0.104  -4.717  0.00  0.00    +0.222 C 
ATOM      2  N   UNL     1     -16.708  -1.120  -3.949  0.00  0.00    -0.227 N 
ATOM      3  N   UNL     1     -17.848  -1.592  -4.533  0.00  0.00    -0.269 N 
ATOM      4  H   UNL     1     -18.528  -2.184  -4.137  0.00  0.00    +0.170 HD
ATOM      5  C   UNL     1     -17.833  -1.073  -5.758  0.00  0.00    +0.092 C 
ATOM      6  C   UNL     1     -16.790  -0.155  -5.941  0.00  0.00    +0.001 C 
ENDROOT
BRANCH   2   7
ATOM      7  C   UNL     1     -16.218  -1.803  -2.793  0.00  0.00    +0.052 A 
ATOM      8  C   UNL     1     -15.236  -2.795  -2.957  0.00  0.00    +0.044 A 
ATOM      9  C   UNL     1     -14.725  -3.461  -1.843  0.00  0.00    +0.043 A 
ATOM     10 CL   UNL     1     -13.534  -4.687  -2.052  0.00  0.00    -0.083 Cl
ATOM     11  C   UNL     1     -15.168  -3.142  -0.563  0.00  0.00    +0.020 A 
ATOM     12  C   UNL     1     -16.119  -2.138  -0.390  0.00  0.00    +0.003 A 
ATOM     13  C   UNL     1     -16.637  -1.462  -1.500  0.00  0.00    +0.025 A 
ENDBRANCH   2   7
BRANCH   1  17
ATOM     14  C   UNL     1     -14.227   2.746  -3.615  0.00  0.00    +0.019 A 
ATOM     15  C   UNL     1     -13.270   1.718  -3.523  0.00  0.00    +0.019 A 
ATOM     16  C   UNL     1     -13.889   0.553  -3.919  0.00  0.00    +0.088 A 
ATOM     17  N   UNL     1     -15.198   0.822  -4.283  0.00  0.00    -0.330 N 
ATOM     18  C   UNL     1     -15.397   2.172  -4.061  0.00  0.00    +0.088 A 
ENDBRANCH   1  17
BRANCH   6  19
ATOM     19  C   UNL     1     -16.587   0.644  -7.102  0.00  0.00    +0.114 C 
BRANCH  19  20
ATOM     20  N   UNL     1     -16.375   1.470  -8.279  0.00  0.00    -0.326 NA
ATOM     21  H   UNL     1     -17.192   2.062  -8.431  0.00  0.00    +0.119 HD
ATOM     22  H   UNL     1     -15.552   2.056  -8.138  0.00  0.00    +0.119 HD
ENDBRANCH  19  20
ENDBRANCH   6  19
TORSDOF 4
ENDMDL
MODEL 6
REMARK VINA RESULT:      -5.9      2.491      3.370
REMARK  Name = min_compound915.pdb
REMARK  4 active torsions:
REMARK  status: ('A' for Active; 'I' for Inactive)
REMARK    1  A    between atoms: _4  and  _6
REMARK    2  A    between atoms: _7  and  _18
REMARK    3  A    between atoms: _10  and  _11
REMARK    4  A    between atoms: _18  and  _19
REMARK                            x       y       z     vdW  Elec       q    Type
REMARK                         _______ _______ _______ _____ _____    ______ ____
ROOT
ATOM      1  C   UNL     1     -14.612   5.051 -16.054  0.00  0.00    +0.222 C 
ATOM      2  N   UNL     1     -13.394   4.722 -16.641  0.00  0.00    -0.227 N 
ATOM      3  N   UNL     1     -13.032   5.666 -17.557  0.00  0.00    -0.269 N 
ATOM      4  H   UNL     1     -12.316   5.609 -18.231  0.00  0.00    +0.170 HD
ATOM      5  C   UNL     1     -13.862   6.682 -17.334  0.00  0.00    +0.092 C 
ATOM      6  C   UNL     1     -14.856   6.368 -16.396  0.00  0.00    +0.001 C 
ENDROOT
BRANCH   2   7
ATOM      7  C   UNL     1     -12.455   3.687 -16.341  0.00  0.00    +0.052 A 
ATOM      8  C   UNL     1     -12.813   2.352 -16.590  0.00  0.00    +0.044 A 
ATOM      9  C   UNL     1     -11.907   1.325 -16.327  0.00  0.00    +0.043 A 
ATOM     10 CL   UNL     1     -12.358  -0.310 -16.619  0.00  0.00    -0.083 Cl
ATOM     11  C   UNL     1     -10.638   1.611 -15.832  0.00  0.00    +0.020 A 
ATOM     12  C   UNL     1     -10.264   2.936 -15.611  0.00  0.00    +0.003 A 
ATOM     13  C   UNL     1     -11.165   3.974 -15.874  0.00  0.00    +0.025 A 
ENDBRANCH   2   7
BRANCH   1  17
ATOM     14  C   UNL     1     -16.427   3.062 -13.649  0.00  0.00    +0.019 A 
ATOM     15  C   UNL     1     -17.068   2.696 -14.847  0.00  0.00    +0.019 A 
ATOM     16  C   UNL     1     -16.461   3.401 -15.862  0.00  0.00    +0.088 A 
ATOM     17  N   UNL     1     -15.441   4.180 -15.343  0.00  0.00    -0.330 N 
ATOM     18  C   UNL     1     -15.453   3.981 -13.975  0.00  0.00    +0.088 A 
ENDBRANCH   1  17
BRANCH   6  19
ATOM     19  C   UNL     1     -15.949   7.208 -16.039  0.00  0.00    +0.114 C 
BRANCH  19  20
ATOM     20  N   UNL     1     -17.055   8.078 -15.673  0.00  0.00    -0.326 NA
ATOM     21  H   UNL     1     -17.300   8.669 -16.467  0.00  0.00    +0.119 HD
ATOM     22  H   UNL     1     -17.860   7.510 -15.410  0.00  0.00    +0.119 HD
ENDBRANCH  19  20
ENDBRANCH   6  19
TORSDOF 4
ENDMDL
MODEL 7
REMARK VINA RESULT:      -5.9      2.386      3.863
REMARK  Name = min_compound915.pdb
REMARK  4 active torsions:
REMARK  status: ('A' for Active; 'I' for Inactive)
REMARK    1  A    between atoms: _4  and  _6
REMARK    2  A    between atoms: _7  and  _18
REMARK    3  A    between atoms: _10  and  _11
REMARK    4  A    between atoms: _18  and  _19
REMARK                            x       y       z     vdW  Elec       q    Type
REMARK                         _______ _______ _______ _____ _____    ______ ____
ROOT
ATOM      1  C   UNL     1     -14.103   5.096 -16.996  0.00  0.00    +0.222 C 
ATOM      2  N   UNL     1     -13.664   4.181 -16.044  0.00  0.00    -0.227 N 
ATOM      3  N   UNL     1     -14.582   4.053 -15.043  0.00  0.00    -0.269 N 
ATOM      4  H   UNL     1     -14.466   3.611 -14.171  0.00  0.00    +0.170 HD
ATOM      5  C   UNL     1     -15.670   4.660 -15.509  0.00  0.00    +0.092 C 
ATOM      6  C   UNL     1     -15.442   5.311 -16.730  0.00  0.00    +0.001 C 
ENDROOT
BRANCH   2   7
ATOM      7  C   UNL     1     -12.539   3.300 -16.035  0.00  0.00    +0.052 A 
ATOM      8  C   UNL     1     -12.747   1.932 -16.278  0.00  0.00    +0.044 A 
ATOM      9  C   UNL     1     -11.664   1.054 -16.297  0.00  0.00    +0.043 A 
ATOM     10 CL   UNL     1     -11.928  -0.624 -16.578  0.00  0.00    -0.083 Cl
ATOM     11  C   UNL     1     -10.369   1.523 -16.092  0.00  0.00    +0.020 A 
ATOM     12  C   UNL     1     -10.152   2.883 -15.882  0.00  0.00    +0.003 A 
ATOM     13  C   UNL     1     -11.231   3.773 -15.863  0.00  0.00    +0.025 A 
ENDBRANCH   2   7
BRANCH   1  17
ATOM     14  C   UNL     1     -11.861   7.141 -18.953  0.00  0.00    +0.019 A 
ATOM     15  C   UNL     1     -12.233   6.164 -19.895  0.00  0.00    +0.019 A 
ATOM     16  C   UNL     1     -13.101   5.302 -19.262  0.00  0.00    +0.088 A 
ATOM     17  N   UNL     1     -13.306   5.722 -17.958  0.00  0.00    -0.330 N 
ATOM     18  C   UNL     1     -12.512   6.839 -17.777  0.00  0.00    +0.088 A 
ENDBRANCH   1  17
BRANCH   6  19
ATOM     19  C   UNL     1     -16.379   6.137 -17.413  0.00  0.00    +0.114 C 
BRANCH  19  20
ATOM     20  N   UNL     1     -17.325   6.983 -18.121  0.00  0.00    -0.326 NA
ATOM     21  H   UNL     1     -16.841   7.485 -18.866  0.00  0.00    +0.119 HD
ATOM     22  H   UNL     1     -18.063   6.406 -18.523  0.00  0.00    +0.119 HD
ENDBRANCH  19  20
ENDBRANCH   6  19
TORSDOF 4
ENDMDL
MODEL 8
REMARK VINA RESULT:      -5.7      3.099      5.535
REMARK  Name = min_compound915.pdb
REMARK  4 active torsions:
REMARK  status: ('A' for Active; 'I' for Inactive)
REMARK    1  A    between atoms: _4  and  _6
REMARK    2  A    between atoms: _7  and  _18
REMARK    3  A    between atoms: _10  and  _11
REMARK    4  A    between atoms: _18  and  _19
REMARK                            x       y       z     vdW  Elec       q    Type
REMARK                         _______ _______ _______ _____ _____    ______ ____
ROOT
ATOM      1  C   UNL     1     -13.794   4.616 -16.389  0.00  0.00    +0.222 C 
ATOM      2  N   UNL     1     -14.755   5.054 -15.483  0.00  0.00    -0.227 N 
ATOM      3  N   UNL     1     -15.133   6.335 -15.766  0.00  0.00    -0.269 N 
ATOM      4  H   UNL     1     -15.663   6.945 -15.204  0.00  0.00    +0.170 HD
ATOM      5  C   UNL     1     -14.624   6.573 -16.972  0.00  0.00    +0.092 C 
ATOM      6  C   UNL     1     -13.798   5.533 -17.423  0.00  0.00    +0.001 C 
ENDROOT
BRANCH   2   7
ATOM      7  C   UNL     1     -15.471   4.358 -14.460  0.00  0.00    +0.052 A 
ATOM      8  C   UNL     1     -15.273   4.732 -13.120  0.00  0.00    +0.044 A 
ATOM      9  C   UNL     1     -15.975   4.084 -12.104  0.00  0.00    +0.043 A 
ATOM     10 CL   UNL     1     -15.715   4.536 -10.463  0.00  0.00    -0.083 Cl
ATOM     11  C   UNL     1     -16.886   3.076 -12.405  0.00  0.00    +0.020 A 
ATOM     12  C   UNL     1     -17.110   2.721 -13.735  0.00  0.00    +0.003 A 
ATOM     13  C   UNL     1     -16.413   3.366 -14.762  0.00  0.00    +0.025 A 
ENDBRANCH   2   7
BRANCH   1  17
ATOM     14  C   UNL     1     -12.117   1.420 -16.283  0.00  0.00    +0.019 A 
ATOM     15  C   UNL     1     -11.142   2.260 -15.715  0.00  0.00    +0.019 A 
ATOM     16  C   UNL     1     -11.665   3.535 -15.700  0.00  0.00    +0.088 A 
ATOM     17  N   UNL     1     -12.949   3.517 -16.218  0.00  0.00    -0.330 N 
ATOM     18  C   UNL     1     -13.200   2.212 -16.599  0.00  0.00    +0.088 A 
ENDBRANCH   1  17
BRANCH   6  19
ATOM     19  C   UNL     1     -13.026   5.552 -18.619  0.00  0.00    +0.114 C 
BRANCH  19  20
ATOM     20  N   UNL     1     -12.251   5.577 -19.848  0.00  0.00    -0.326 NA
ATOM     21  H   UNL     1     -12.389   6.471 -20.319  0.00  0.00    +0.119 HD
ATOM     22  H   UNL     1     -11.262   5.457 -19.628  0.00  0.00    +0.119 HD
ENDBRANCH  19  20
ENDBRANCH   6  19
TORSDOF 4
ENDMDL
MODEL 9
REMARK VINA RESULT:      -5.7      3.743      6.170
REMARK  Name = min_compound915.pdb
REMARK  4 active torsions:
REMARK  status: ('A' for Active; 'I' for Inactive)
REMARK    1  A    between atoms: _4  and  _6
REMARK    2  A    between atoms: _7  and  _18
REMARK    3  A    between atoms: _10  and  _11
REMARK    4  A    between atoms: _18  and  _19
REMARK                            x       y       z     vdW  Elec       q    Type
REMARK                         _______ _______ _______ _____ _____    ______ ____
ROOT
ATOM      1  C   UNL     1     -12.481   3.975 -16.351  0.00  0.00    +0.222 C 
ATOM      2  N   UNL     1     -12.394   5.166 -17.065  0.00  0.00    -0.227 N 
ATOM      3  N   UNL     1     -11.106   5.616 -17.092  0.00  0.00    -0.269 N 
ATOM      4  H   UNL     1     -10.783   6.502 -17.376  0.00  0.00    +0.170 HD
ATOM      5  C   UNL     1     -10.385   4.590 -16.649  0.00  0.00    +0.092 C 
ATOM      6  C   UNL     1     -11.182   3.530 -16.193  0.00  0.00    +0.001 C 
ENDROOT
BRANCH   2   7
ATOM      7  C   UNL     1     -13.363   5.865 -17.850  0.00  0.00    +0.052 A 
ATOM      8  C   UNL     1     -13.965   7.017 -17.315  0.00  0.00    +0.044 A 
ATOM      9  C   UNL     1     -14.897   7.730 -18.069  0.00  0.00    +0.043 A 
ATOM     10 CL   UNL     1     -15.644   9.130 -17.402  0.00  0.00    -0.083 Cl
ATOM     11  C   UNL     1     -15.227   7.321 -19.358  0.00  0.00    +0.020 A 
ATOM     12  C   UNL     1     -14.610   6.198 -19.906  0.00  0.00    +0.003 A 
ATOM     13  C   UNL     1     -13.672   5.476 -19.159  0.00  0.00    +0.025 A 
ENDBRANCH   2   7
BRANCH   1  17
ATOM     14  C   UNL     1     -15.506   3.082 -14.594  0.00  0.00    +0.019 A 
ATOM     15  C   UNL     1     -15.441   2.064 -15.564  0.00  0.00    +0.019 A 
ATOM     16  C   UNL     1     -14.312   2.295 -16.318  0.00  0.00    +0.088 A 
ATOM     17  N   UNL     1     -13.651   3.412 -15.836  0.00  0.00    -0.330 N 
ATOM     18  C   UNL     1     -14.416   3.901 -14.794  0.00  0.00    +0.088 A 
ENDBRANCH   1  17
BRANCH   6  19
ATOM     19  C   UNL     1     -10.700   2.349 -15.559  0.00  0.00    +0.114 C 
BRANCH  19  20
ATOM     20  N   UNL     1     -10.196   1.145 -14.921  0.00  0.00    -0.326 NA
ATOM     21  H   UNL     1      -9.936   0.465 -15.636  0.00  0.00    +0.119 HD
ATOM     22  H   UNL     1      -9.378   1.376 -14.358  0.00  0.00    +0.119 HD
ENDBRANCH  19  20
ENDBRANCH   6  19
TORSDOF 4
ENDMDL
