MODEL 1
REMARK VINA RESULT:      -5.9      0.000      0.000
REMARK  Name = min_compound957.pdb
REMARK  7 active torsions:
REMARK  status: ('A' for Active; 'I' for Inactive)
REMARK    1  A    between atoms: _2  and  _14
REMARK    2  A    between atoms: _4  and  _18
REMARK    3  A    between atoms: _5  and  _17
REMARK    4  A    between atoms: _6  and  _18
REMARK    5  A    between atoms: _14  and  _15
REMARK    6  A    between atoms: _14  and  _16
REMARK    7  A    between atoms: _17  and  _19
REMARK                            x       y       z     vdW  Elec       q    Type
REMARK                         _______ _______ _______ _____ _____    ______ ____
ROOT
ATOM      1  N   UNL     1     -16.193   4.586 -16.317  0.00  0.00    -0.240 NA
ATOM      2  C   UNL     1     -15.495   5.047 -17.392  0.00  0.00    +0.136 A 
ATOM      3  C   UNL     1     -14.140   4.849 -17.228  0.00  0.00    +0.064 A 
ATOM      4  N   UNL     1     -14.034   4.111 -16.065  0.00  0.00    -0.325 N 
ATOM      5  C   UNL     1     -15.296   4.098 -15.483  0.00  0.00    +0.113 A 
ENDROOT
BRANCH   5   6
ATOM      6  C   UNL     1     -15.596   3.632 -14.081  0.00  0.00    +0.049 C 
ATOM      7  C   UNL     1     -16.819   2.719 -14.062  0.00  0.00    +0.015 C 
ATOM      8  C   UNL     1     -15.810   4.829 -13.149  0.00  0.00    +0.015 C 
ENDBRANCH   5   6
BRANCH   3   9
ATOM      9  C   UNL     1     -13.031   5.332 -18.077  0.00  0.00    +0.210 C 
BRANCH   9  10
ATOM     10  O   UNL     1     -12.495   6.469 -17.421  0.00  0.00    -0.389 OA
ATOM     11  H   UNL     1     -12.905   7.247 -17.839  0.00  0.00    +0.210 HD
ENDBRANCH   9  10
ENDBRANCH   3   9
BRANCH   4  12
ATOM     12  C   UNL     1     -12.831   3.549 -15.443  0.00  0.00    +0.161 C 
BRANCH  12  13
ATOM     13  C   UNL     1     -12.084   2.486 -16.224  0.00  0.00    +0.009 A 
ATOM     14  C   UNL     1     -12.633   1.220 -16.511  0.00  0.00    +0.047 A 
ATOM     15  C   UNL     1     -11.918   0.266 -17.251  0.00  0.00    +0.020 A 
ATOM     16  C   UNL     1     -10.622   0.530 -17.678  0.00  0.00    +0.003 A 
ATOM     17  C   UNL     1     -10.032   1.744 -17.350  0.00  0.00    +0.020 A 
ATOM     18 CL   UNL     1     -14.191   0.726 -15.949  0.00  0.00    -0.083 Cl
ATOM     19  C   UNL     1     -10.748   2.707 -16.626  0.00  0.00    +0.047 A 
ATOM     20 CL   UNL     1      -9.884   4.155 -16.228  0.00  0.00    -0.083 Cl
ENDBRANCH  12  13
ENDBRANCH   4  12
TORSDOF 5
ENDMDL
MODEL 2
REMARK VINA RESULT:      -5.8      0.137      2.104
REMARK  Name = min_compound957.pdb
REMARK  7 active torsions:
REMARK  status: ('A' for Active; 'I' for Inactive)
REMARK    1  A    between atoms: _2  and  _14
REMARK    2  A    between atoms: _4  and  _18
REMARK    3  A    between atoms: _5  and  _17
REMARK    4  A    between atoms: _6  and  _18
REMARK    5  A    between atoms: _14  and  _15
REMARK    6  A    between atoms: _14  and  _16
REMARK    7  A    between atoms: _17  and  _19
REMARK                            x       y       z     vdW  Elec       q    Type
REMARK                         _______ _______ _______ _____ _____    ______ ____
ROOT
ATOM      1  N   UNL     1     -16.166   4.461 -16.317  0.00  0.00    -0.240 NA
ATOM      2  C   UNL     1     -15.465   4.906 -17.397  0.00  0.00    +0.136 A 
ATOM      3  C   UNL     1     -14.109   4.728 -17.218  0.00  0.00    +0.064 A 
ATOM      4  N   UNL     1     -14.004   4.019 -16.037  0.00  0.00    -0.325 N 
ATOM      5  C   UNL     1     -15.271   4.004 -15.465  0.00  0.00    +0.113 A 
ENDROOT
BRANCH   5   6
ATOM      6  C   UNL     1     -15.577   3.567 -14.055  0.00  0.00    +0.049 C 
ATOM      7  C   UNL     1     -16.878   2.772 -14.004  0.00  0.00    +0.015 C 
ATOM      8  C   UNL     1     -15.654   4.778 -13.120  0.00  0.00    +0.015 C 
ENDBRANCH   5   6
BRANCH   3   9
ATOM      9  C   UNL     1     -12.998   5.205 -18.068  0.00  0.00    +0.210 C 
BRANCH   9  10
ATOM     10  O   UNL     1     -12.518   6.395 -17.465  0.00  0.00    -0.389 OA
ATOM     11  H   UNL     1     -11.547   6.324 -17.451  0.00  0.00    +0.210 HD
ENDBRANCH   9  10
ENDBRANCH   3   9
BRANCH   4  12
ATOM     12  C   UNL     1     -12.800   3.485 -15.393  0.00  0.00    +0.161 C 
BRANCH  12  13
ATOM     13  C   UNL     1     -12.026   2.423 -16.149  0.00  0.00    +0.009 A 
ATOM     14  C   UNL     1     -10.733   2.641 -16.667  0.00  0.00    +0.047 A 
ATOM     15  C   UNL     1     -10.041   1.628 -17.347  0.00  0.00    +0.020 A 
ATOM     16  C   UNL     1     -10.637   0.394 -17.572  0.00  0.00    +0.003 A 
ATOM     17  C   UNL     1     -11.936   0.175 -17.133  0.00  0.00    +0.020 A 
ATOM     18 CL   UNL     1      -9.922   4.162 -16.548  0.00  0.00    -0.083 Cl
ATOM     19  C   UNL     1     -12.626   1.178 -16.436  0.00  0.00    +0.047 A 
ATOM     20 CL   UNL     1     -14.259   0.806 -15.992  0.00  0.00    -0.083 Cl
ENDBRANCH  12  13
ENDBRANCH   4  12
TORSDOF 5
ENDMDL
MODEL 3
REMARK VINA RESULT:      -5.8     10.407     12.669
REMARK  Name = min_compound957.pdb
REMARK  7 active torsions:
REMARK  status: ('A' for Active; 'I' for Inactive)
REMARK    1  A    between atoms: _2  and  _14
REMARK    2  A    between atoms: _4  and  _18
REMARK    3  A    between atoms: _5  and  _17
REMARK    4  A    between atoms: _6  and  _18
REMARK    5  A    between atoms: _14  and  _15
REMARK    6  A    between atoms: _14  and  _16
REMARK    7  A    between atoms: _17  and  _19
REMARK                            x       y       z     vdW  Elec       q    Type
REMARK                         _______ _______ _______ _____ _____    ______ ____
ROOT
ATOM      1  N   UNL     1     -18.109   0.155  -7.484  0.00  0.00    -0.240 NA
ATOM      2  C   UNL     1     -18.914  -0.701  -6.796  0.00  0.00    +0.136 A 
ATOM      3  C   UNL     1     -18.765  -0.538  -5.434  0.00  0.00    +0.064 A 
ATOM      4  N   UNL     1     -17.936   0.560  -5.304  0.00  0.00    -0.325 N 
ATOM      5  C   UNL     1     -17.459   0.854  -6.576  0.00  0.00    +0.113 A 
ENDROOT
BRANCH   5   6
ATOM      6  C   UNL     1     -16.331   1.808  -6.876  0.00  0.00    +0.049 C 
ATOM      7  C   UNL     1     -16.709   2.758  -8.008  0.00  0.00    +0.015 C 
ATOM      8  C   UNL     1     -15.054   1.039  -7.229  0.00  0.00    +0.015 C 
ENDBRANCH   5   6
BRANCH   3   9
ATOM      9  C   UNL     1     -19.331  -1.357  -4.342  0.00  0.00    +0.210 C 
BRANCH   9  10
ATOM     10  O   UNL     1     -18.723  -2.634  -4.447  0.00  0.00    -0.389 OA
ATOM     11  H   UNL     1     -17.806  -2.479  -4.736  0.00  0.00    +0.210 HD
ENDBRANCH   9  10
ENDBRANCH   3   9
BRANCH   4  12
ATOM     12  C   UNL     1     -17.496   1.235  -4.079  0.00  0.00    +0.161 C 
BRANCH  12  13
ATOM     13  C   UNL     1     -16.002   1.317  -3.834  0.00  0.00    +0.009 A 
ATOM     14  C   UNL     1     -15.217   0.192  -3.509  0.00  0.00    +0.047 A 
ATOM     15  C   UNL     1     -13.833   0.303  -3.306  0.00  0.00    +0.020 A 
ATOM     16  C   UNL     1     -13.207   1.542  -3.371  0.00  0.00    +0.003 A 
ATOM     17  C   UNL     1     -13.968   2.676  -3.623  0.00  0.00    +0.020 A 
ATOM     18 CL   UNL     1     -15.887  -1.386  -3.293  0.00  0.00    -0.083 Cl
ATOM     19  C   UNL     1     -15.349   2.569  -3.844  0.00  0.00    +0.047 A 
ATOM     20 CL   UNL     1     -16.196   4.060  -4.088  0.00  0.00    -0.083 Cl
ENDBRANCH  12  13
ENDBRANCH   4  12
TORSDOF 5
ENDMDL
MODEL 4
REMARK VINA RESULT:      -5.7     10.778     12.371
REMARK  Name = min_compound957.pdb
REMARK  7 active torsions:
REMARK  status: ('A' for Active; 'I' for Inactive)
REMARK    1  A    between atoms: _2  and  _14
REMARK    2  A    between atoms: _4  and  _18
REMARK    3  A    between atoms: _5  and  _17
REMARK    4  A    between atoms: _6  and  _18
REMARK    5  A    between atoms: _14  and  _15
REMARK    6  A    between atoms: _14  and  _16
REMARK    7  A    between atoms: _17  and  _19
REMARK                            x       y       z     vdW  Elec       q    Type
REMARK                         _______ _______ _______ _____ _____    ______ ____
ROOT
ATOM      1  N   UNL     1     -18.491  -0.308  -7.611  0.00  0.00    -0.240 NA
ATOM      2  C   UNL     1     -17.210  -0.643  -7.930  0.00  0.00    +0.136 A 
ATOM      3  C   UNL     1     -16.382  -0.543  -6.831  0.00  0.00    +0.064 A 
ATOM      4  N   UNL     1     -17.233  -0.268  -5.778  0.00  0.00    -0.325 N 
ATOM      5  C   UNL     1     -18.480  -0.002  -6.330  0.00  0.00    +0.113 A 
ENDROOT
BRANCH   5   6
ATOM      6  C   UNL     1     -19.646   0.593  -5.582  0.00  0.00    +0.049 C 
ATOM      7  C   UNL     1     -20.812  -0.389  -5.524  0.00  0.00    +0.015 C 
ATOM      8  C   UNL     1     -20.088   1.909  -6.230  0.00  0.00    +0.015 C 
ENDBRANCH   5   6
BRANCH   3   9
ATOM      9  C   UNL     1     -14.910  -0.668  -6.775  0.00  0.00    +0.210 C 
BRANCH   9  10
ATOM     10  O   UNL     1     -14.640  -1.963  -6.266  0.00  0.00    -0.389 OA
ATOM     11  H   UNL     1     -13.678  -2.007  -6.122  0.00  0.00    +0.210 HD
ENDBRANCH   9  10
ENDBRANCH   3   9
BRANCH   4  12
ATOM     12  C   UNL     1     -16.912  -0.132  -4.353  0.00  0.00    +0.161 C 
BRANCH  12  13
ATOM     13  C   UNL     1     -15.659   0.644  -4.000  0.00  0.00    +0.009 A 
ATOM     14  C   UNL     1     -14.543   0.053  -3.372  0.00  0.00    +0.047 A 
ATOM     15  C   UNL     1     -13.393   0.800  -3.075  0.00  0.00    +0.020 A 
ATOM     16  C   UNL     1     -13.345   2.161  -3.349  0.00  0.00    +0.003 A 
ATOM     17  C   UNL     1     -14.455   2.783  -3.906  0.00  0.00    +0.020 A 
ATOM     18 CL   UNL     1     -14.515  -1.604  -2.882  0.00  0.00    -0.083 Cl
ATOM     19  C   UNL     1     -15.601   2.038  -4.221  0.00  0.00    +0.047 A 
ATOM     20 CL   UNL     1     -16.939   2.937  -4.855  0.00  0.00    -0.083 Cl
ENDBRANCH  12  13
ENDBRANCH   4  12
TORSDOF 5
ENDMDL
MODEL 5
REMARK VINA RESULT:      -5.6     10.640     12.422
REMARK  Name = min_compound957.pdb
REMARK  7 active torsions:
REMARK  status: ('A' for Active; 'I' for Inactive)
REMARK    1  A    between atoms: _2  and  _14
REMARK    2  A    between atoms: _4  and  _18
REMARK    3  A    between atoms: _5  and  _17
REMARK    4  A    between atoms: _6  and  _18
REMARK    5  A    between atoms: _14  and  _15
REMARK    6  A    between atoms: _14  and  _16
REMARK    7  A    between atoms: _17  and  _19
REMARK                            x       y       z     vdW  Elec       q    Type
REMARK                         _______ _______ _______ _____ _____    ______ ____
ROOT
ATOM      1  N   UNL     1     -17.932   1.657  -7.690  0.00  0.00    -0.240 NA
ATOM      2  C   UNL     1     -18.945   2.372  -7.128  0.00  0.00    +0.136 A 
ATOM      3  C   UNL     1     -19.010   2.157  -5.767  0.00  0.00    +0.064 A 
ATOM      4  N   UNL     1     -17.899   1.385  -5.483  0.00  0.00    -0.325 N 
ATOM      5  C   UNL     1     -17.358   0.999  -6.704  0.00  0.00    +0.113 A 
ENDROOT
BRANCH   5   6
ATOM      6  C   UNL     1     -16.295  -0.055  -6.882  0.00  0.00    +0.049 C 
ATOM      7  C   UNL     1     -14.944   0.584  -7.191  0.00  0.00    +0.015 C 
ATOM      8  C   UNL     1     -16.688  -1.035  -7.991  0.00  0.00    +0.015 C 
ENDBRANCH   5   6
BRANCH   3   9
ATOM      9  C   UNL     1     -20.041   2.613  -4.812  0.00  0.00    +0.210 C 
BRANCH   9  10
ATOM     10  O   UNL     1     -20.945   1.531  -4.656  0.00  0.00    -0.389 OA
ATOM     11  H   UNL     1     -20.664   1.051  -3.856  0.00  0.00    +0.210 HD
ENDBRANCH   9  10
ENDBRANCH   3   9
BRANCH   4  12
ATOM     12  C   UNL     1     -17.418   0.917  -4.179  0.00  0.00    +0.161 C 
BRANCH  12  13
ATOM     13  C   UNL     1     -15.947   1.118  -3.874  0.00  0.00    +0.009 A 
ATOM     14  C   UNL     1     -15.094   0.063  -3.488  0.00  0.00    +0.047 A 
ATOM     15  C   UNL     1     -13.733   0.284  -3.229  0.00  0.00    +0.020 A 
ATOM     16  C   UNL     1     -13.200   1.566  -3.298  0.00  0.00    +0.003 A 
ATOM     17  C   UNL     1     -14.033   2.633  -3.609  0.00  0.00    +0.020 A 
ATOM     18 CL   UNL     1     -15.653  -1.557  -3.263  0.00  0.00    -0.083 Cl
ATOM     19  C   UNL     1     -15.390   2.416  -3.886  0.00  0.00    +0.047 A 
ATOM     20 CL   UNL     1     -16.336   3.832  -4.203  0.00  0.00    -0.083 Cl
ENDBRANCH  12  13
ENDBRANCH   4  12
TORSDOF 5
ENDMDL
MODEL 6
REMARK VINA RESULT:      -5.6      2.387      3.227
REMARK  Name = min_compound957.pdb
REMARK  7 active torsions:
REMARK  status: ('A' for Active; 'I' for Inactive)
REMARK    1  A    between atoms: _2  and  _14
REMARK    2  A    between atoms: _4  and  _18
REMARK    3  A    between atoms: _5  and  _17
REMARK    4  A    between atoms: _6  and  _18
REMARK    5  A    between atoms: _14  and  _15
REMARK    6  A    between atoms: _14  and  _16
REMARK    7  A    between atoms: _17  and  _19
REMARK                            x       y       z     vdW  Elec       q    Type
REMARK                         _______ _______ _______ _____ _____    ______ ____
ROOT
ATOM      1  N   UNL     1     -16.610   3.832 -17.396  0.00  0.00    -0.240 NA
ATOM      2  C   UNL     1     -16.600   4.222 -18.700  0.00  0.00    +0.136 A 
ATOM      3  C   UNL     1     -15.402   3.901 -19.306  0.00  0.00    +0.064 A 
ATOM      4  N   UNL     1     -14.720   3.162 -18.358  0.00  0.00    -0.325 N 
ATOM      5  C   UNL     1     -15.440   3.268 -17.174  0.00  0.00    +0.113 A 
ENDROOT
BRANCH   5   6
ATOM      6  C   UNL     1     -14.940   2.839 -15.819  0.00  0.00    +0.049 C 
ATOM      7  C   UNL     1     -15.962   1.947 -15.120  0.00  0.00    +0.015 C 
ATOM      8  C   UNL     1     -14.616   4.060 -14.952  0.00  0.00    +0.015 C 
ENDBRANCH   5   6
BRANCH   3   9
ATOM      9  C   UNL     1     -14.923   4.276 -20.653  0.00  0.00    +0.210 C 
BRANCH   9  10
ATOM     10  O   UNL     1     -15.665   3.491 -21.572  0.00  0.00    -0.389 OA
ATOM     11  H   UNL     1     -15.148   2.678 -21.719  0.00  0.00    +0.210 HD
ENDBRANCH   9  10
ENDBRANCH   3   9
BRANCH   4  12
ATOM     12  C   UNL     1     -13.420   2.495 -18.480  0.00  0.00    +0.161 C 
BRANCH  12  13
ATOM     13  C   UNL     1     -12.337   2.913 -17.505  0.00  0.00    +0.009 A 
ATOM     14  C   UNL     1     -11.786   4.210 -17.484  0.00  0.00    +0.047 A 
ATOM     15  C   UNL     1     -10.795   4.566 -16.556  0.00  0.00    +0.020 A 
ATOM     16  C   UNL     1     -10.295   3.627 -15.662  0.00  0.00    +0.003 A 
ATOM     17  C   UNL     1     -10.772   2.323 -15.708  0.00  0.00    +0.020 A 
ATOM     18 CL   UNL     1     -12.244   5.440 -18.608  0.00  0.00    -0.083 Cl
ATOM     19  C   UNL     1     -11.774   1.966 -16.621  0.00  0.00    +0.047 A 
ATOM     20 CL   UNL     1     -12.243   0.299 -16.620  0.00  0.00    -0.083 Cl
ENDBRANCH  12  13
ENDBRANCH   4  12
TORSDOF 5
ENDMDL
MODEL 7
REMARK VINA RESULT:      -5.5      2.736      5.048
REMARK  Name = min_compound957.pdb
REMARK  7 active torsions:
REMARK  status: ('A' for Active; 'I' for Inactive)
REMARK    1  A    between atoms: _2  and  _14
REMARK    2  A    between atoms: _4  and  _18
REMARK    3  A    between atoms: _5  and  _17
REMARK    4  A    between atoms: _6  and  _18
REMARK    5  A    between atoms: _14  and  _15
REMARK    6  A    between atoms: _14  and  _16
REMARK    7  A    between atoms: _17  and  _19
REMARK                            x       y       z     vdW  Elec       q    Type
REMARK                         _______ _______ _______ _____ _____    ______ ____
ROOT
ATOM      1  N   UNL     1     -10.602   2.011 -15.580  0.00  0.00    -0.240 NA
ATOM      2  C   UNL     1     -10.678   3.350 -15.815  0.00  0.00    +0.136 A 
ATOM      3  C   UNL     1     -11.371   3.612 -16.979  0.00  0.00    +0.064 A 
ATOM      4  N   UNL     1     -11.849   2.380 -17.384  0.00  0.00    -0.325 N 
ATOM      5  C   UNL     1     -11.239   1.429 -16.576  0.00  0.00    +0.113 A 
ENDROOT
BRANCH   5   6
ATOM      6  C   UNL     1     -11.264  -0.058 -16.822  0.00  0.00    +0.049 C 
ATOM      7  C   UNL     1     -12.507  -0.691 -16.204  0.00  0.00    +0.015 C 
ATOM      8  C   UNL     1      -9.997  -0.719 -16.268  0.00  0.00    +0.015 C 
ENDBRANCH   5   6
BRANCH   3   9
ATOM      9  C   UNL     1     -11.550   4.905 -17.672  0.00  0.00    +0.210 C 
BRANCH   9  10
ATOM     10  O   UNL     1     -12.617   5.565 -17.012  0.00  0.00    -0.389 OA
ATOM     11  H   UNL     1     -12.699   6.441 -17.429  0.00  0.00    +0.210 HD
ENDBRANCH   9  10
ENDBRANCH   3   9
BRANCH   4  12
ATOM     12  C   UNL     1     -12.717   2.064 -18.523  0.00  0.00    +0.161 C 
BRANCH  12  13
ATOM     13  C   UNL     1     -14.014   2.839 -18.637  0.00  0.00    +0.009 A 
ATOM     14  C   UNL     1     -14.907   3.000 -17.557  0.00  0.00    +0.047 A 
ATOM     15  C   UNL     1     -16.092   3.738 -17.695  0.00  0.00    +0.020 A 
ATOM     16  C   UNL     1     -16.441   4.291 -18.922  0.00  0.00    +0.003 A 
ATOM     17  C   UNL     1     -15.613   4.090 -20.018  0.00  0.00    +0.020 A 
ATOM     18 CL   UNL     1     -14.645   2.276 -16.010  0.00  0.00    -0.083 Cl
ATOM     19  C   UNL     1     -14.419   3.367 -19.882  0.00  0.00    +0.047 A 
ATOM     20 CL   UNL     1     -13.503   3.136 -21.334  0.00  0.00    -0.083 Cl
ENDBRANCH  12  13
ENDBRANCH   4  12
TORSDOF 5
ENDMDL
MODEL 8
REMARK VINA RESULT:      -5.4     10.220     12.231
REMARK  Name = min_compound957.pdb
REMARK  7 active torsions:
REMARK  status: ('A' for Active; 'I' for Inactive)
REMARK    1  A    between atoms: _2  and  _14
REMARK    2  A    between atoms: _4  and  _18
REMARK    3  A    between atoms: _5  and  _17
REMARK    4  A    between atoms: _6  and  _18
REMARK    5  A    between atoms: _14  and  _15
REMARK    6  A    between atoms: _14  and  _16
REMARK    7  A    between atoms: _17  and  _19
REMARK                            x       y       z     vdW  Elec       q    Type
REMARK                         _______ _______ _______ _____ _____    ______ ____
ROOT
ATOM      1  N   UNL     1     -17.128   1.501  -8.049  0.00  0.00    -0.240 NA
ATOM      2  C   UNL     1     -16.231   0.480  -8.129  0.00  0.00    +0.136 A 
ATOM      3  C   UNL     1     -15.494   0.373  -6.968  0.00  0.00    +0.064 A 
ATOM      4  N   UNL     1     -16.072   1.284  -6.104  0.00  0.00    -0.325 N 
ATOM      5  C   UNL     1     -16.968   2.035  -6.856  0.00  0.00    +0.113 A 
ENDROOT
BRANCH   5   6
ATOM      6  C   UNL     1     -17.633   3.305  -6.390  0.00  0.00    +0.049 C 
ATOM      7  C   UNL     1     -19.107   3.064  -6.079  0.00  0.00    +0.015 C 
ATOM      8  C   UNL     1     -17.483   4.409  -7.441  0.00  0.00    +0.015 C 
ENDBRANCH   5   6
BRANCH   3   9
ATOM      9  C   UNL     1     -14.327  -0.491  -6.695  0.00  0.00    +0.210 C 
BRANCH   9  10
ATOM     10  O   UNL     1     -14.838  -1.799  -6.496  0.00  0.00    -0.389 OA
ATOM     11  H   UNL     1     -14.998  -2.170  -7.382  0.00  0.00    +0.210 HD
ENDBRANCH   9  10
ENDBRANCH   3   9
BRANCH   4  12
ATOM     12  C   UNL     1     -15.746   1.548  -4.699  0.00  0.00    +0.161 C 
BRANCH  12  13
ATOM     13  C   UNL     1     -15.663   0.350  -3.774  0.00  0.00    +0.009 A 
ATOM     14  C   UNL     1     -16.780  -0.451  -3.457  0.00  0.00    +0.047 A 
ATOM     15  C   UNL     1     -16.662  -1.563  -2.609  0.00  0.00    +0.020 A 
ATOM     16  C   UNL     1     -15.444  -1.873  -2.016  0.00  0.00    +0.003 A 
ATOM     17  C   UNL     1     -14.344  -1.060  -2.257  0.00  0.00    +0.020 A 
ATOM     18 CL   UNL     1     -18.370  -0.113  -4.042  0.00  0.00    -0.083 Cl
ATOM     19  C   UNL     1     -14.452   0.042  -3.118  0.00  0.00    +0.047 A 
ATOM     20 CL   UNL     1     -13.026   1.011  -3.290  0.00  0.00    -0.083 Cl
ENDBRANCH  12  13
ENDBRANCH   4  12
TORSDOF 5
ENDMDL
MODEL 9
REMARK VINA RESULT:      -5.3      2.785      3.546
REMARK  Name = min_compound957.pdb
REMARK  7 active torsions:
REMARK  status: ('A' for Active; 'I' for Inactive)
REMARK    1  A    between atoms: _2  and  _14
REMARK    2  A    between atoms: _4  and  _18
REMARK    3  A    between atoms: _5  and  _17
REMARK    4  A    between atoms: _6  and  _18
REMARK    5  A    between atoms: _14  and  _15
REMARK    6  A    between atoms: _14  and  _16
REMARK    7  A    between atoms: _17  and  _19
REMARK                            x       y       z     vdW  Elec       q    Type
REMARK                         _______ _______ _______ _____ _____    ______ ____
ROOT
ATOM      1  N   UNL     1     -13.573   5.383 -19.874  0.00  0.00    -0.240 NA
ATOM      2  C   UNL     1     -13.712   4.155 -20.446  0.00  0.00    +0.136 A 
ATOM      3  C   UNL     1     -13.431   3.151 -19.543  0.00  0.00    +0.064 A 
ATOM      4  N   UNL     1     -13.250   3.806 -18.339  0.00  0.00    -0.325 N 
ATOM      5  C   UNL     1     -13.212   5.165 -18.625  0.00  0.00    +0.113 A 
ENDROOT
BRANCH   5   6
ATOM      6  C   UNL     1     -12.780   6.239 -17.660  0.00  0.00    +0.049 C 
ATOM      7  C   UNL     1     -13.985   7.010 -17.130  0.00  0.00    +0.015 C 
ATOM      8  C   UNL     1     -11.785   7.195 -18.326  0.00  0.00    +0.015 C 
ENDBRANCH   5   6
BRANCH   3   9
ATOM      9  C   UNL     1     -13.314   1.698 -19.789  0.00  0.00    +0.210 C 
BRANCH   9  10
ATOM     10  O   UNL     1     -13.110   1.547 -21.184  0.00  0.00    -0.389 OA
ATOM     11  H   UNL     1     -13.957   1.766 -21.612  0.00  0.00    +0.210 HD
ENDBRANCH   9  10
ENDBRANCH   3   9
BRANCH   4  12
ATOM     12  C   UNL     1     -13.000   3.232 -17.013  0.00  0.00    +0.161 C 
BRANCH  12  13
ATOM     13  C   UNL     1     -12.054   2.050 -16.940  0.00  0.00    +0.009 A 
ATOM     14  C   UNL     1     -12.481   0.748 -16.605  0.00  0.00    +0.047 A 
ATOM     15  C   UNL     1     -11.578  -0.326 -16.563  0.00  0.00    +0.020 A 
ATOM     16  C   UNL     1     -10.225  -0.121 -16.804  0.00  0.00    +0.003 A 
ATOM     17  C   UNL     1      -9.768   1.163 -17.070  0.00  0.00    +0.020 A 
ATOM     18 CL   UNL     1     -14.114   0.378 -16.181  0.00  0.00    -0.083 Cl
ATOM     19  C   UNL     1     -10.668   2.237 -17.130  0.00  0.00    +0.047 A 
ATOM     20 CL   UNL     1      -9.969   3.797 -17.410  0.00  0.00    -0.083 Cl
ENDBRANCH  12  13
ENDBRANCH   4  12
TORSDOF 5
ENDMDL
