MODEL 1
REMARK VINA RESULT:      -6.2      0.000      0.000
REMARK  Name = min_compound914.pdb
REMARK  1 active torsions:
REMARK  status: ('A' for Active; 'I' for Inactive)
REMARK    1  A    between atoms: _7  and  _15
REMARK                            x       y       z     vdW  Elec       q    Type
REMARK                         _______ _______ _______ _____ _____    ______ ____
ROOT
ATOM      1  N   UNL     1     -14.581  -1.970  -4.985  0.00  0.00    -0.269 N 
ATOM      2  H   UNL     1     -14.079  -2.745  -5.387  0.00  0.00    +0.156 HD
ATOM      3  C   UNL     1     -14.956  -2.098  -3.650  0.00  0.00    +0.310 C 
ATOM      4  N   UNL     1     -14.536  -3.316  -3.150  0.00  0.00    -0.248 N 
ATOM      5  H   UNL     1     -14.034  -3.968  -3.724  0.00  0.00    +0.158 HD
ATOM      6  C   UNL     1     -14.771  -3.706  -1.861  0.00  0.00    +0.165 A 
ATOM      7  S   UNL     1     -14.148  -5.255  -1.489  0.00  0.00    -0.060 S 
ATOM      8  C   UNL     1     -14.750  -5.093   0.109  0.00  0.00    +0.068 A 
ATOM      9  C   UNL     1     -15.379  -3.874   0.241  0.00  0.00    +0.120 A 
ATOM     10  N   UNL     1     -15.388  -3.084  -0.892  0.00  0.00    -0.233 NA
ATOM     11  O   UNL     1     -15.571  -1.251  -3.019  0.00  0.00    -0.252 OA
ENDROOT
BRANCH   1  15
ATOM     12  C   UNL     1     -15.466   1.231  -7.595  0.00  0.00    +0.020 A 
ATOM     13  C   UNL     1     -16.418   0.269  -7.274  0.00  0.00    +0.043 A 
ATOM     14  C   UNL     1     -16.104  -0.781  -6.408  0.00  0.00    +0.043 A 
ATOM     15  C   UNL     1     -14.822  -0.880  -5.850  0.00  0.00    +0.036 A 
ATOM     16  C   UNL     1     -13.871   0.089  -6.178  0.00  0.00    +0.023 A 
ATOM     17 CL   UNL     1     -17.998   0.372  -7.948  0.00  0.00    -0.083 Cl
ATOM     18  C   UNL     1     -14.190   1.139  -7.045  0.00  0.00    +0.003 A 
ENDBRANCH   1  15
TORSDOF 1
ENDMDL
MODEL 2
REMARK VINA RESULT:      -6.1      2.069      2.510
REMARK  Name = min_compound914.pdb
REMARK  1 active torsions:
REMARK  status: ('A' for Active; 'I' for Inactive)
REMARK    1  A    between atoms: _7  and  _15
REMARK                            x       y       z     vdW  Elec       q    Type
REMARK                         _______ _______ _______ _____ _____    ______ ____
ROOT
ATOM      1  N   UNL     1     -14.842  -2.187  -3.725  0.00  0.00    -0.269 N 
ATOM      2  H   UNL     1     -15.463  -2.633  -4.381  0.00  0.00    +0.156 HD
ATOM      3  C   UNL     1     -14.464  -2.940  -2.617  0.00  0.00    +0.310 C 
ATOM      4  N   UNL     1     -15.051  -4.190  -2.666  0.00  0.00    -0.248 N 
ATOM      5  H   UNL     1     -15.653  -4.453  -3.425  0.00  0.00    +0.158 HD
ATOM      6  C   UNL     1     -14.851  -5.138  -1.701  0.00  0.00    +0.165 A 
ATOM      7  S   UNL     1     -15.688  -6.601  -1.995  0.00  0.00    -0.060 S 
ATOM      8  C   UNL     1     -15.039  -7.242  -0.541  0.00  0.00    +0.068 A 
ATOM      9  C   UNL     1     -14.236  -6.295   0.058  0.00  0.00    +0.120 A 
ATOM     10  N   UNL     1     -14.132  -5.092  -0.612  0.00  0.00    -0.233 NA
ATOM     11  O   UNL     1     -13.721  -2.544  -1.731  0.00  0.00    -0.252 OA
ENDROOT
BRANCH   1  15
ATOM     12  C   UNL     1     -13.725   1.729  -4.846  0.00  0.00    +0.020 A 
ATOM     13  C   UNL     1     -14.088   0.777  -5.792  0.00  0.00    +0.043 A 
ATOM     14  C   UNL     1     -14.455  -0.512  -5.400  0.00  0.00    +0.043 A 
ATOM     15  C   UNL     1     -14.461  -0.865  -4.043  0.00  0.00    +0.036 A 
ATOM     16  C   UNL     1     -14.094   0.096  -3.098  0.00  0.00    +0.023 A 
ATOM     17 CL   UNL     1     -14.088   1.190  -7.464  0.00  0.00    -0.083 Cl
ATOM     18  C   UNL     1     -13.728   1.387  -3.497  0.00  0.00    +0.003 A 
ENDBRANCH   1  15
TORSDOF 1
ENDMDL
MODEL 3
REMARK VINA RESULT:      -6.0      5.794      8.749
REMARK  Name = min_compound914.pdb
REMARK  1 active torsions:
REMARK  status: ('A' for Active; 'I' for Inactive)
REMARK    1  A    between atoms: _7  and  _15
REMARK                            x       y       z     vdW  Elec       q    Type
REMARK                         _______ _______ _______ _____ _____    ______ ____
ROOT
ATOM      1  N   UNL     1     -14.825   1.744  -7.974  0.00  0.00    -0.269 N 
ATOM      2  H   UNL     1     -14.019   1.854  -8.569  0.00  0.00    +0.156 HD
ATOM      3  C   UNL     1     -15.950   2.493  -8.308  0.00  0.00    +0.310 C 
ATOM      4  N   UNL     1     -15.701   3.253  -9.435  0.00  0.00    -0.248 N 
ATOM      5  H   UNL     1     -14.811   3.221  -9.897  0.00  0.00    +0.158 HD
ATOM      6  C   UNL     1     -16.636   4.086  -9.985  0.00  0.00    +0.165 A 
ATOM      7  S   UNL     1     -16.080   4.915 -11.375  0.00  0.00    -0.060 S 
ATOM      8  C   UNL     1     -17.609   5.683 -11.504  0.00  0.00    +0.068 A 
ATOM      9  C   UNL     1     -18.427   5.251 -10.482  0.00  0.00    +0.120 A 
ATOM     10  N   UNL     1     -17.863   4.336  -9.615  0.00  0.00    -0.233 NA
ATOM     11  O   UNL     1     -17.004   2.474  -7.688  0.00  0.00    -0.252 OA
ENDROOT
BRANCH   1  15
ATOM     12  C   UNL     1     -14.299  -0.812  -4.652  0.00  0.00    +0.020 A 
ATOM     13  C   UNL     1     -13.918   0.525  -4.609  0.00  0.00    +0.043 A 
ATOM     14  C   UNL     1     -14.102   1.353  -5.720  0.00  0.00    +0.043 A 
ATOM     15  C   UNL     1     -14.674   0.846  -6.895  0.00  0.00    +0.036 A 
ATOM     16  C   UNL     1     -15.053  -0.498  -6.931  0.00  0.00    +0.023 A 
ATOM     17 CL   UNL     1     -13.214   1.167  -3.176  0.00  0.00    -0.083 Cl
ATOM     18  C   UNL     1     -14.868  -1.323  -5.816  0.00  0.00    +0.003 A 
ENDBRANCH   1  15
TORSDOF 1
ENDMDL
MODEL 4
REMARK VINA RESULT:      -6.0      2.485      2.580
REMARK  Name = min_compound914.pdb
REMARK  1 active torsions:
REMARK  status: ('A' for Active; 'I' for Inactive)
REMARK    1  A    between atoms: _7  and  _15
REMARK                            x       y       z     vdW  Elec       q    Type
REMARK                         _______ _______ _______ _____ _____    ______ ____
ROOT
ATOM      1  N   UNL     1     -14.423  -1.467  -3.373  0.00  0.00    -0.269 N 
ATOM      2  H   UNL     1     -14.170  -1.972  -4.208  0.00  0.00    +0.156 HD
ATOM      3  C   UNL     1     -14.627  -2.229  -2.225  0.00  0.00    +0.310 C 
ATOM      4  N   UNL     1     -14.426  -3.569  -2.499  0.00  0.00    -0.248 N 
ATOM      5  H   UNL     1     -14.170  -3.879  -3.418  0.00  0.00    +0.158 HD
ATOM      6  C   UNL     1     -14.560  -4.544  -1.550  0.00  0.00    +0.165 A 
ATOM      7  S   UNL     1     -14.257  -6.121  -2.141  0.00  0.00    -0.060 S 
ATOM      8  C   UNL     1     -14.577  -6.748  -0.577  0.00  0.00    +0.068 A 
ATOM      9  C   UNL     1     -14.890  -5.712   0.278  0.00  0.00    +0.120 A 
ATOM     10  N   UNL     1     -14.878  -4.452  -0.286  0.00  0.00    -0.233 NA
ATOM     11  O   UNL     1     -14.939  -1.770  -1.136  0.00  0.00    -0.252 OA
ENDROOT
BRANCH   1  15
ATOM     12  C   UNL     1     -14.916   2.704  -3.817  0.00  0.00    +0.020 A 
ATOM     13  C   UNL     1     -15.991   1.828  -3.930  0.00  0.00    +0.043 A 
ATOM     14  C   UNL     1     -15.805   0.452  -3.780  0.00  0.00    +0.043 A 
ATOM     15  C   UNL     1     -14.530  -0.066  -3.511  0.00  0.00    +0.036 A 
ATOM     16  C   UNL     1     -13.456   0.820  -3.399  0.00  0.00    +0.023 A 
ATOM     17 CL   UNL     1     -17.564   2.444  -4.260  0.00  0.00    -0.083 Cl
ATOM     18  C   UNL     1     -13.647   2.198  -3.550  0.00  0.00    +0.003 A 
ENDBRANCH   1  15
TORSDOF 1
ENDMDL
MODEL 5
REMARK VINA RESULT:      -6.0     14.157     15.649
REMARK  Name = min_compound914.pdb
REMARK  1 active torsions:
REMARK  status: ('A' for Active; 'I' for Inactive)
REMARK    1  A    between atoms: _7  and  _15
REMARK                            x       y       z     vdW  Elec       q    Type
REMARK                         _______ _______ _______ _____ _____    ______ ____
ROOT
ATOM      1  N   UNL     1     -12.316   2.414 -18.147  0.00  0.00    -0.269 N 
ATOM      2  H   UNL     1     -12.667   2.234 -19.074  0.00  0.00    +0.156 HD
ATOM      3  C   UNL     1     -12.637   3.650 -17.592  0.00  0.00    +0.310 C 
ATOM      4  N   UNL     1     -13.400   4.388 -18.476  0.00  0.00    -0.248 N 
ATOM      5  H   UNL     1     -13.653   4.022 -19.376  0.00  0.00    +0.158 HD
ATOM      6  C   UNL     1     -13.856   5.645 -18.188  0.00  0.00    +0.165 A 
ATOM      7  S   UNL     1     -14.779   6.344 -19.447  0.00  0.00    -0.060 S 
ATOM      8  C   UNL     1     -14.988   7.750 -18.487  0.00  0.00    +0.068 A 
ATOM      9  C   UNL     1     -14.341   7.583 -17.281  0.00  0.00    +0.120 A 
ATOM     10  N   UNL     1     -13.694   6.374 -17.116  0.00  0.00    -0.233 NA
ATOM     11  O   UNL     1     -12.287   4.022 -16.481  0.00  0.00    -0.252 OA
ENDROOT
BRANCH   1  15
ATOM     12  C   UNL     1     -10.185  -0.760 -16.353  0.00  0.00    +0.020 A 
ATOM     13  C   UNL     1     -11.572  -0.689 -16.292  0.00  0.00    +0.043 A 
ATOM     14  C   UNL     1     -12.258   0.370 -16.893  0.00  0.00    +0.043 A 
ATOM     15  C   UNL     1     -11.554   1.377 -17.567  0.00  0.00    +0.036 A 
ATOM     16  C   UNL     1     -10.160   1.300 -17.623  0.00  0.00    +0.023 A 
ATOM     17 CL   UNL     1     -12.456  -1.917 -15.469  0.00  0.00    -0.083 Cl
ATOM     18  C   UNL     1      -9.478   0.236 -17.020  0.00  0.00    +0.003 A 
ENDBRANCH   1  15
TORSDOF 1
ENDMDL
MODEL 6
REMARK VINA RESULT:      -5.9     14.666     16.862
REMARK  Name = min_compound914.pdb
REMARK  1 active torsions:
REMARK  status: ('A' for Active; 'I' for Inactive)
REMARK    1  A    between atoms: _7  and  _15
REMARK                            x       y       z     vdW  Elec       q    Type
REMARK                         _______ _______ _______ _____ _____    ______ ____
ROOT
ATOM      1  N   UNL     1     -12.518   1.450 -19.268  0.00  0.00    -0.269 N 
ATOM      2  H   UNL     1     -12.176   0.872 -20.020  0.00  0.00    +0.156 HD
ATOM      3  C   UNL     1     -13.616   2.257 -19.556  0.00  0.00    +0.310 C 
ATOM      4  N   UNL     1     -14.011   2.076 -20.868  0.00  0.00    -0.248 N 
ATOM      5  H   UNL     1     -13.530   1.436 -21.472  0.00  0.00    +0.158 HD
ATOM      6  C   UNL     1     -15.069   2.746 -21.419  0.00  0.00    +0.165 A 
ATOM      7  S   UNL     1     -15.354   2.345 -23.057  0.00  0.00    -0.060 S 
ATOM      8  C   UNL     1     -16.673   3.442 -23.076  0.00  0.00    +0.068 A 
ATOM      9  C   UNL     1     -16.797   4.031 -21.836  0.00  0.00    +0.120 A 
ATOM     10  N   UNL     1     -15.875   3.628 -20.891  0.00  0.00    -0.233 NA
ATOM     11  O   UNL     1     -14.147   3.014 -18.757  0.00  0.00    -0.252 OA
ENDROOT
BRANCH   1  15
ATOM     12  C   UNL     1     -10.414   1.308 -15.609  0.00  0.00    +0.020 A 
ATOM     13  C   UNL     1     -10.702   2.515 -16.236  0.00  0.00    +0.043 A 
ATOM     14  C   UNL     1     -11.399   2.540 -17.446  0.00  0.00    +0.043 A 
ATOM     15  C   UNL     1     -11.820   1.344 -18.046  0.00  0.00    +0.036 A 
ATOM     16  C   UNL     1     -11.526   0.135 -17.410  0.00  0.00    +0.023 A 
ATOM     17 CL   UNL     1     -10.194   3.994 -15.516  0.00  0.00    -0.083 Cl
ATOM     18  C   UNL     1     -10.828   0.116 -16.198  0.00  0.00    +0.003 A 
ENDBRANCH   1  15
TORSDOF 1
ENDMDL
MODEL 7
REMARK VINA RESULT:      -5.9      2.269      2.554
REMARK  Name = min_compound914.pdb
REMARK  1 active torsions:
REMARK  status: ('A' for Active; 'I' for Inactive)
REMARK    1  A    between atoms: _7  and  _15
REMARK                            x       y       z     vdW  Elec       q    Type
REMARK                         _______ _______ _______ _____ _____    ______ ____
ROOT
ATOM      1  N   UNL     1     -14.619  -2.407  -3.909  0.00  0.00    -0.269 N 
ATOM      2  H   UNL     1     -13.985  -3.154  -4.146  0.00  0.00    +0.156 HD
ATOM      3  C   UNL     1     -15.541  -2.672  -2.900  0.00  0.00    +0.310 C 
ATOM      4  N   UNL     1     -15.373  -3.959  -2.425  0.00  0.00    -0.248 N 
ATOM      5  H   UNL     1     -14.665  -4.563  -2.799  0.00  0.00    +0.158 HD
ATOM      6  C   UNL     1     -16.148  -4.485  -1.428  0.00  0.00    +0.165 A 
ATOM      7  S   UNL     1     -15.739  -6.095  -1.021  0.00  0.00    -0.060 S 
ATOM      8  C   UNL     1     -16.983  -6.092   0.160  0.00  0.00    +0.068 A 
ATOM      9  C   UNL     1     -17.616  -4.867   0.157  0.00  0.00    +0.120 A 
ATOM     10  N   UNL     1     -17.133  -3.951  -0.756  0.00  0.00    -0.233 NA
ATOM     11  O   UNL     1     -16.377  -1.876  -2.499  0.00  0.00    -0.252 OA
ENDROOT
BRANCH   1  15
ATOM     12  C   UNL     1     -14.121   1.248  -5.967  0.00  0.00    +0.020 A 
ATOM     13  C   UNL     1     -13.961   1.161  -4.588  0.00  0.00    +0.043 A 
ATOM     14  C   UNL     1     -14.130  -0.058  -3.927  0.00  0.00    +0.043 A 
ATOM     15  C   UNL     1     -14.464  -1.214  -4.647  0.00  0.00    +0.036 A 
ATOM     16  C   UNL     1     -14.624  -1.119  -6.032  0.00  0.00    +0.023 A 
ATOM     17 CL   UNL     1     -13.551   2.569  -3.685  0.00  0.00    -0.083 Cl
ATOM     18  C   UNL     1     -14.452   0.105  -6.689  0.00  0.00    +0.003 A 
ENDBRANCH   1  15
TORSDOF 1
ENDMDL
MODEL 8
REMARK VINA RESULT:      -5.8     14.576     17.044
REMARK  Name = min_compound914.pdb
REMARK  1 active torsions:
REMARK  status: ('A' for Active; 'I' for Inactive)
REMARK    1  A    between atoms: _7  and  _15
REMARK                            x       y       z     vdW  Elec       q    Type
REMARK                         _______ _______ _______ _____ _____    ______ ____
ROOT
ATOM      1  N   UNL     1     -13.017   1.450 -18.857  0.00  0.00    -0.269 N 
ATOM      2  H   UNL     1     -13.326   0.530 -19.128  0.00  0.00    +0.156 HD
ATOM      3  C   UNL     1     -13.457   2.510 -19.647  0.00  0.00    +0.310 C 
ATOM      4  N   UNL     1     -14.257   2.042 -20.671  0.00  0.00    -0.248 N 
ATOM      5  H   UNL     1     -14.454   1.063 -20.772  0.00  0.00    +0.158 HD
ATOM      6  C   UNL     1     -14.827   2.869 -21.600  0.00  0.00    +0.165 A 
ATOM      7  S   UNL     1     -15.773   2.044 -22.762  0.00  0.00    -0.060 S 
ATOM      8  C   UNL     1     -16.128   3.546 -23.511  0.00  0.00    +0.068 A 
ATOM      9  C   UNL     1     -15.500   4.562 -22.821  0.00  0.00    +0.120 A 
ATOM     10  N   UNL     1     -14.757   4.167 -21.727  0.00  0.00    -0.233 NA
ATOM     11  O   UNL     1     -13.170   3.682 -19.454  0.00  0.00    -0.252 OA
ENDROOT
BRANCH   1  15
ATOM     12  C   UNL     1     -10.454   1.469 -15.500  0.00  0.00    +0.020 A 
ATOM     13  C   UNL     1     -10.432   0.432 -16.427  0.00  0.00    +0.043 A 
ATOM     14  C   UNL     1     -11.288   0.446 -17.531  0.00  0.00    +0.043 A 
ATOM     15  C   UNL     1     -12.183   1.508 -17.719  0.00  0.00    +0.036 A 
ATOM     16  C   UNL     1     -12.201   2.545 -16.784  0.00  0.00    +0.023 A 
ATOM     17 CL   UNL     1      -9.339  -0.881 -16.213  0.00  0.00    -0.083 Cl
ATOM     18  C   UNL     1     -11.341   2.527 -15.680  0.00  0.00    +0.003 A 
ENDBRANCH   1  15
TORSDOF 1
ENDMDL
MODEL 9
REMARK VINA RESULT:      -5.7      2.617      3.455
REMARK  Name = min_compound914.pdb
REMARK  1 active torsions:
REMARK  status: ('A' for Active; 'I' for Inactive)
REMARK    1  A    between atoms: _7  and  _15
REMARK                            x       y       z     vdW  Elec       q    Type
REMARK                         _______ _______ _______ _____ _____    ______ ____
ROOT
ATOM      1  N   UNL     1     -14.700  -2.024  -1.868  0.00  0.00    -0.269 N 
ATOM      2  H   UNL     1     -15.194  -1.562  -1.120  0.00  0.00    +0.156 HD
ATOM      3  C   UNL     1     -14.301  -3.337  -1.630  0.00  0.00    +0.310 C 
ATOM      4  N   UNL     1     -14.689  -3.733  -0.365  0.00  0.00    -0.248 N 
ATOM      5  H   UNL     1     -15.187  -3.111   0.245  0.00  0.00    +0.158 HD
ATOM      6  C   UNL     1     -14.425  -4.980   0.132  0.00  0.00    +0.165 A 
ATOM      7  S   UNL     1     -15.011  -5.222   1.721  0.00  0.00    -0.060 S 
ATOM      8  C   UNL     1     -14.387  -6.819   1.687  0.00  0.00    +0.068 A 
ATOM      9  C   UNL     1     -13.780  -7.049   0.471  0.00  0.00    +0.120 A 
ATOM     10  N   UNL     1     -13.806  -5.991  -0.416  0.00  0.00    -0.233 NA
ATOM     11  O   UNL     1     -13.694  -4.031  -2.432  0.00  0.00    -0.252 OA
ENDROOT
BRANCH   1  15
ATOM     12  C   UNL     1     -14.047   0.413  -5.255  0.00  0.00    +0.020 A 
ATOM     13  C   UNL     1     -13.878   0.901  -3.964  0.00  0.00    +0.043 A 
ATOM     14  C   UNL     1     -14.099   0.078  -2.857  0.00  0.00    +0.043 A 
ATOM     15  C   UNL     1     -14.496  -1.255  -3.034  0.00  0.00    +0.036 A 
ATOM     16  C   UNL     1     -14.664  -1.738  -4.334  0.00  0.00    +0.023 A 
ATOM     17 CL   UNL     1     -13.392   2.535  -3.724  0.00  0.00    -0.083 Cl
ATOM     18  C   UNL     1     -14.440  -0.909  -5.439  0.00  0.00    +0.003 A 
ENDBRANCH   1  15
TORSDOF 1
ENDMDL
