MODEL 1
REMARK VINA RESULT:      -7.7      0.000      0.000
REMARK  Name = min_compound985.pdb
REMARK  9 active torsions:
REMARK  status: ('A' for Active; 'I' for Inactive)
REMARK    1  A    between atoms: _1  and  _7
REMARK    2  A    between atoms: _4  and  _14
REMARK    3  A    between atoms: _7  and  _8
REMARK    4  A    between atoms: _14  and  _15
REMARK    5  A    between atoms: _15  and  _16
REMARK    6  A    between atoms: _16  and  _18
REMARK    7  A    between atoms: _18  and  _19
REMARK    8  A    between atoms: _18  and  _20
REMARK    9  A    between atoms: _18  and  _21
REMARK                            x       y       z     vdW  Elec       q    Type
REMARK                         _______ _______ _______ _____ _____    ______ ____
ROOT
ATOM      1  C   UNL     1     -14.109   2.678 -15.893  0.00  0.00    +0.128 A 
ATOM      2  C   UNL     1     -15.238   1.874 -15.749  0.00  0.00    +0.046 A 
ATOM      3  C   UNL     1     -16.207   2.183 -14.790  0.00  0.00    +0.007 A 
ATOM      4  C   UNL     1     -16.060   3.290 -13.945  0.00  0.00    -0.047 A 
ATOM      5  C   UNL     1     -14.925   4.099 -14.104  0.00  0.00    +0.007 A 
ATOM      6  C   UNL     1     -13.946   3.788 -15.061  0.00  0.00    +0.046 A 
ENDROOT
BRANCH   1   7
ATOM      7  O   UNL     1     -13.179   2.246 -16.810  0.00  0.00    -0.456 OA
BRANCH   7   8
ATOM      8  C   UNL     1     -12.171   1.402 -16.413  0.00  0.00    +0.128 A 
ATOM      9  C   UNL     1     -12.263   0.078 -16.848  0.00  0.00    +0.046 A 
ATOM     10  C   UNL     1     -11.249  -0.832 -16.547  0.00  0.00    +0.004 A 
ATOM     11  C   UNL     1     -10.134  -0.413 -15.821  0.00  0.00    +0.000 A 
ATOM     12  C   UNL     1     -10.029   0.916 -15.406  0.00  0.00    +0.004 A 
ATOM     13  C   UNL     1     -11.042   1.829 -15.712  0.00  0.00    +0.046 A 
ENDBRANCH   7   8
ENDBRANCH   1   7
BRANCH   4  14
ATOM     14  C   UNL     1     -17.070   3.618 -12.921  0.00  0.00    +0.042 C 
BRANCH  14  15
ATOM     15  C   UNL     1     -17.044   3.233 -11.518  0.00  0.00    +0.079 C 
BRANCH  15  16
ATOM     16  C   UNL     1     -16.321   3.865 -10.556  0.00  0.00    +0.139 C 
ATOM     17  O   UNL     1     -15.322   4.643 -10.693  0.00  0.00    -0.297 OA
BRANCH  16  18
ATOM     18  C   UNL     1     -16.771   3.769  -9.128  0.00  0.00    +0.021 C 
ATOM     19  C   UNL     1     -16.795   2.273  -9.236  0.00  0.00    +0.018 C 
ATOM     20  C   UNL     1     -16.747   5.265  -9.020  0.00  0.00    +0.018 C 
ATOM     21  C   UNL     1     -17.221   3.673  -7.700  0.00  0.00    +0.018 C 
ENDBRANCH  16  18
ENDBRANCH  15  16
ENDBRANCH  14  15
ENDBRANCH   4  14
TORSDOF 6
ENDMDL
MODEL 2
REMARK VINA RESULT:      -7.7      4.451      7.642
REMARK  Name = min_compound985.pdb
REMARK  9 active torsions:
REMARK  status: ('A' for Active; 'I' for Inactive)
REMARK    1  A    between atoms: _1  and  _7
REMARK    2  A    between atoms: _4  and  _14
REMARK    3  A    between atoms: _7  and  _8
REMARK    4  A    between atoms: _14  and  _15
REMARK    5  A    between atoms: _15  and  _16
REMARK    6  A    between atoms: _16  and  _18
REMARK    7  A    between atoms: _18  and  _19
REMARK    8  A    between atoms: _18  and  _20
REMARK    9  A    between atoms: _18  and  _21
REMARK                            x       y       z     vdW  Elec       q    Type
REMARK                         _______ _______ _______ _____ _____    ______ ____
ROOT
ATOM      1  C   UNL     1     -16.767   1.979  -8.651  0.00  0.00    +0.128 A 
ATOM      2  C   UNL     1     -15.451   2.146  -8.227  0.00  0.00    +0.046 A 
ATOM      3  C   UNL     1     -14.839   1.178  -7.425  0.00  0.00    +0.007 A 
ATOM      4  C   UNL     1     -15.535   0.034  -7.017  0.00  0.00    -0.047 A 
ATOM      5  C   UNL     1     -16.857  -0.130  -7.456  0.00  0.00    +0.007 A 
ATOM      6  C   UNL     1     -17.477   0.843  -8.256  0.00  0.00    +0.046 A 
ENDROOT
BRANCH   1   7
ATOM      7  O   UNL     1     -17.301   3.024  -9.370  0.00  0.00    -0.456 OA
BRANCH   7   8
ATOM      8  C   UNL     1     -16.675   3.455 -10.514  0.00  0.00    +0.128 A 
ATOM      9  C   UNL     1     -17.192   2.980 -11.720  0.00  0.00    +0.046 A 
ATOM     10  C   UNL     1     -16.660   3.419 -12.933  0.00  0.00    +0.004 A 
ATOM     11  C   UNL     1     -15.617   4.346 -12.939  0.00  0.00    +0.000 A 
ATOM     12  C   UNL     1     -15.116   4.841 -11.733  0.00  0.00    +0.004 A 
ATOM     13  C   UNL     1     -15.652   4.405 -10.518  0.00  0.00    +0.046 A 
ENDBRANCH   7   8
ENDBRANCH   1   7
BRANCH   4  14
ATOM     14  C   UNL     1     -14.904  -0.988  -6.160  0.00  0.00    +0.042 C 
BRANCH  14  15
ATOM     15  C   UNL     1     -14.497  -0.831  -4.773  0.00  0.00    +0.079 C 
BRANCH  15  16
ATOM     16  C   UNL     1     -15.085   0.015  -3.885  0.00  0.00    +0.139 C 
ATOM     17  O   UNL     1     -16.032  -0.222  -3.067  0.00  0.00    -0.297 OA
BRANCH  16  18
ATOM     18  C   UNL     1     -14.520   1.394  -3.712  0.00  0.00    +0.021 C 
ATOM     19  C   UNL     1     -13.179   0.804  -3.389  0.00  0.00    +0.018 C 
ATOM     20  C   UNL     1     -15.861   1.984  -4.035  0.00  0.00    +0.018 C 
ATOM     21  C   UNL     1     -13.955   2.773  -3.538  0.00  0.00    +0.018 C 
ENDBRANCH  16  18
ENDBRANCH  15  16
ENDBRANCH  14  15
ENDBRANCH   4  14
TORSDOF 6
ENDMDL
MODEL 3
REMARK VINA RESULT:      -7.6      0.102      1.492
REMARK  Name = min_compound985.pdb
REMARK  9 active torsions:
REMARK  status: ('A' for Active; 'I' for Inactive)
REMARK    1  A    between atoms: _1  and  _7
REMARK    2  A    between atoms: _4  and  _14
REMARK    3  A    between atoms: _7  and  _8
REMARK    4  A    between atoms: _14  and  _15
REMARK    5  A    between atoms: _15  and  _16
REMARK    6  A    between atoms: _16  and  _18
REMARK    7  A    between atoms: _18  and  _19
REMARK    8  A    between atoms: _18  and  _20
REMARK    9  A    between atoms: _18  and  _21
REMARK                            x       y       z     vdW  Elec       q    Type
REMARK                         _______ _______ _______ _____ _____    ______ ____
ROOT
ATOM      1  C   UNL     1     -14.081   2.650 -15.814  0.00  0.00    +0.128 A 
ATOM      2  C   UNL     1     -13.912   3.772 -15.006  0.00  0.00    +0.046 A 
ATOM      3  C   UNL     1     -14.885   4.116 -14.062  0.00  0.00    +0.007 A 
ATOM      4  C   UNL     1     -16.053   3.356 -13.921  0.00  0.00    -0.047 A 
ATOM      5  C   UNL     1     -16.210   2.223 -14.733  0.00  0.00    +0.007 A 
ATOM      6  C   UNL     1     -15.238   1.878 -15.686  0.00  0.00    +0.046 A 
ENDROOT
BRANCH   1   7
ATOM      7  O   UNL     1     -13.105   2.443 -16.761  0.00  0.00    -0.456 OA
BRANCH   7   8
ATOM      8  C   UNL     1     -12.130   1.500 -16.542  0.00  0.00    +0.128 A 
ATOM      9  C   UNL     1     -11.057   1.894 -15.739  0.00  0.00    +0.046 A 
ATOM     10  C   UNL     1     -10.056   0.980 -15.409  0.00  0.00    +0.004 A 
ATOM     11  C   UNL     1     -10.135  -0.334 -15.872  0.00  0.00    +0.000 A 
ATOM     12  C   UNL     1     -11.219  -0.735 -16.655  0.00  0.00    +0.004 A 
ATOM     13  C   UNL     1     -12.226   0.178 -16.981  0.00  0.00    +0.046 A 
ENDBRANCH   7   8
ENDBRANCH   1   7
BRANCH   4  14
ATOM     14  C   UNL     1     -17.093   3.717 -12.938  0.00  0.00    +0.042 C 
BRANCH  14  15
ATOM     15  C   UNL     1     -17.133   3.340 -11.534  0.00  0.00    +0.079 C 
BRANCH  15  16
ATOM     16  C   UNL     1     -16.368   3.900 -10.561  0.00  0.00    +0.139 C 
ATOM     17  O   UNL     1     -15.339   4.641 -10.685  0.00  0.00    -0.297 OA
BRANCH  16  18
ATOM     18  C   UNL     1     -16.797   3.763  -9.130  0.00  0.00    +0.021 C 
ATOM     19  C   UNL     1     -16.835   2.271  -9.284  0.00  0.00    +0.018 C 
ATOM     20  C   UNL     1     -16.758   5.255  -8.976  0.00  0.00    +0.018 C 
ATOM     21  C   UNL     1     -17.225   3.626  -7.699  0.00  0.00    +0.018 C 
ENDBRANCH  16  18
ENDBRANCH  15  16
ENDBRANCH  14  15
ENDBRANCH   4  14
TORSDOF 6
ENDMDL
MODEL 4
REMARK VINA RESULT:      -7.5      1.154      1.335
REMARK  Name = min_compound985.pdb
REMARK  9 active torsions:
REMARK  status: ('A' for Active; 'I' for Inactive)
REMARK    1  A    between atoms: _1  and  _7
REMARK    2  A    between atoms: _4  and  _14
REMARK    3  A    between atoms: _7  and  _8
REMARK    4  A    between atoms: _14  and  _15
REMARK    5  A    between atoms: _15  and  _16
REMARK    6  A    between atoms: _16  and  _18
REMARK    7  A    between atoms: _18  and  _19
REMARK    8  A    between atoms: _18  and  _20
REMARK    9  A    between atoms: _18  and  _21
REMARK                            x       y       z     vdW  Elec       q    Type
REMARK                         _______ _______ _______ _____ _____    ______ ____
ROOT
ATOM      1  C   UNL     1     -14.009   2.942 -15.911  0.00  0.00    +0.128 A 
ATOM      2  C   UNL     1     -15.054   2.021 -15.949  0.00  0.00    +0.046 A 
ATOM      3  C   UNL     1     -16.108   2.111 -15.034  0.00  0.00    +0.007 A 
ATOM      4  C   UNL     1     -16.129   3.111 -14.054  0.00  0.00    -0.047 A 
ATOM      5  C   UNL     1     -15.077   4.039 -14.030  0.00  0.00    +0.007 A 
ATOM      6  C   UNL     1     -14.014   3.948 -14.942  0.00  0.00    +0.046 A 
ENDROOT
BRANCH   1   7
ATOM      7  O   UNL     1     -12.984   2.721 -16.802  0.00  0.00    -0.456 OA
BRANCH   7   8
ATOM      8  C   UNL     1     -12.053   1.745 -16.542  0.00  0.00    +0.128 A 
ATOM      9  C   UNL     1     -12.074   0.629 -17.381  0.00  0.00    +0.046 A 
ATOM     10  C   UNL     1     -11.121  -0.379 -17.231  0.00  0.00    +0.004 A 
ATOM     11  C   UNL     1     -10.137  -0.264 -16.249  0.00  0.00    +0.000 A 
ATOM     12  C   UNL     1     -10.100   0.863 -15.426  0.00  0.00    +0.004 A 
ATOM     13  C   UNL     1     -11.051   1.876 -15.579  0.00  0.00    +0.046 A 
ENDBRANCH   7   8
ENDBRANCH   1   7
BRANCH   4  14
ATOM     14  C   UNL     1     -17.228   3.207 -13.074  0.00  0.00    +0.042 C 
BRANCH  14  15
ATOM     15  C   UNL     1     -17.163   2.888 -11.657  0.00  0.00    +0.079 C 
BRANCH  15  16
ATOM     16  C   UNL     1     -17.905   3.495 -10.693  0.00  0.00    +0.139 C 
ATOM     17  O   UNL     1     -19.057   3.172 -10.254  0.00  0.00    -0.297 OA
BRANCH  16  18
ATOM     18  C   UNL     1     -17.304   4.632  -9.921  0.00  0.00    +0.021 C 
ATOM     19  C   UNL     1     -16.162   3.750  -9.510  0.00  0.00    +0.018 C 
ATOM     20  C   UNL     1     -18.446   5.514 -10.331  0.00  0.00    +0.018 C 
ATOM     21  C   UNL     1     -16.704   5.769  -9.149  0.00  0.00    +0.018 C 
ENDBRANCH  16  18
ENDBRANCH  15  16
ENDBRANCH  14  15
ENDBRANCH   4  14
TORSDOF 6
ENDMDL
MODEL 5
REMARK VINA RESULT:      -7.4      1.682      2.323
REMARK  Name = min_compound985.pdb
REMARK  9 active torsions:
REMARK  status: ('A' for Active; 'I' for Inactive)
REMARK    1  A    between atoms: _1  and  _7
REMARK    2  A    between atoms: _4  and  _14
REMARK    3  A    between atoms: _7  and  _8
REMARK    4  A    between atoms: _14  and  _15
REMARK    5  A    between atoms: _15  and  _16
REMARK    6  A    between atoms: _16  and  _18
REMARK    7  A    between atoms: _18  and  _19
REMARK    8  A    between atoms: _18  and  _20
REMARK    9  A    between atoms: _18  and  _21
REMARK                            x       y       z     vdW  Elec       q    Type
REMARK                         _______ _______ _______ _____ _____    ______ ____
ROOT
ATOM      1  C   UNL     1     -13.054   2.797 -17.364  0.00  0.00    +0.128 A 
ATOM      2  C   UNL     1     -14.341   2.944 -17.878  0.00  0.00    +0.046 A 
ATOM      3  C   UNL     1     -15.320   3.624 -17.148  0.00  0.00    +0.007 A 
ATOM      4  C   UNL     1     -15.039   4.154 -15.883  0.00  0.00    -0.047 A 
ATOM      5  C   UNL     1     -13.738   4.010 -15.378  0.00  0.00    +0.007 A 
ATOM      6  C   UNL     1     -12.754   3.321 -16.105  0.00  0.00    +0.046 A 
ENDROOT
BRANCH   1   7
ATOM      7  O   UNL     1     -12.188   2.046 -18.125  0.00  0.00    -0.456 OA
BRANCH   7   8
ATOM      8  C   UNL     1     -11.385   1.110 -17.519  0.00  0.00    +0.128 A 
ATOM      9  C   UNL     1     -12.037   0.051 -16.886  0.00  0.00    +0.046 A 
ATOM     10  C   UNL     1     -11.298  -0.980 -16.304  0.00  0.00    +0.004 A 
ATOM     11  C   UNL     1      -9.904  -0.957 -16.367  0.00  0.00    +0.000 A 
ATOM     12  C   UNL     1      -9.252   0.090 -17.021  0.00  0.00    +0.004 A 
ATOM     13  C   UNL     1      -9.991   1.120 -17.610  0.00  0.00    +0.046 A 
ENDBRANCH   7   8
ENDBRANCH   1   7
BRANCH   4  14
ATOM     14  C   UNL     1     -16.068   4.862 -15.097  0.00  0.00    +0.042 C 
BRANCH  14  15
ATOM     15  C   UNL     1     -16.182   4.902 -13.648  0.00  0.00    +0.079 C 
BRANCH  15  16
ATOM     16  C   UNL     1     -16.490   3.833 -12.867  0.00  0.00    +0.139 C 
ATOM     17  O   UNL     1     -16.858   2.666 -13.223  0.00  0.00    -0.297 OA
BRANCH  16  18
ATOM     18  C   UNL     1     -16.283   3.932 -11.385  0.00  0.00    +0.021 C 
ATOM     19  C   UNL     1     -15.005   4.683 -11.613  0.00  0.00    +0.018 C 
ATOM     20  C   UNL     1     -17.561   3.181 -11.156  0.00  0.00    +0.018 C 
ATOM     21  C   UNL     1     -16.076   4.031  -9.902  0.00  0.00    +0.018 C 
ENDBRANCH  16  18
ENDBRANCH  15  16
ENDBRANCH  14  15
ENDBRANCH   4  14
TORSDOF 6
ENDMDL
MODEL 6
REMARK VINA RESULT:      -7.4      1.247      7.808
REMARK  Name = min_compound985.pdb
REMARK  9 active torsions:
REMARK  status: ('A' for Active; 'I' for Inactive)
REMARK    1  A    between atoms: _1  and  _7
REMARK    2  A    between atoms: _4  and  _14
REMARK    3  A    between atoms: _7  and  _8
REMARK    4  A    between atoms: _14  and  _15
REMARK    5  A    between atoms: _15  and  _16
REMARK    6  A    between atoms: _16  and  _18
REMARK    7  A    between atoms: _18  and  _19
REMARK    8  A    between atoms: _18  and  _20
REMARK    9  A    between atoms: _18  and  _21
REMARK                            x       y       z     vdW  Elec       q    Type
REMARK                         _______ _______ _______ _____ _____    ______ ____
ROOT
ATOM      1  C   UNL     1     -16.172   3.915 -13.277  0.00  0.00    +0.128 A 
ATOM      2  C   UNL     1     -16.688   2.814 -13.958  0.00  0.00    +0.046 A 
ATOM      3  C   UNL     1     -15.985   2.254 -15.029  0.00  0.00    +0.007 A 
ATOM      4  C   UNL     1     -14.764   2.793 -15.452  0.00  0.00    -0.047 A 
ATOM      5  C   UNL     1     -14.248   3.895 -14.754  0.00  0.00    +0.007 A 
ATOM      6  C   UNL     1     -14.954   4.465 -13.683  0.00  0.00    +0.046 A 
ENDROOT
BRANCH   1   7
ATOM      7  O   UNL     1     -16.975   4.438 -12.290  0.00  0.00    -0.456 OA
BRANCH   7   8
ATOM      8  C   UNL     1     -17.130   3.761 -11.106  0.00  0.00    +0.128 A 
ATOM      9  C   UNL     1     -15.987   3.624 -10.316  0.00  0.00    +0.046 A 
ATOM     10  C   UNL     1     -16.067   3.009  -9.066  0.00  0.00    +0.004 A 
ATOM     11  C   UNL     1     -17.296   2.541  -8.600  0.00  0.00    +0.000 A 
ATOM     12  C   UNL     1     -18.444   2.698  -9.378  0.00  0.00    +0.004 A 
ATOM     13  C   UNL     1     -18.366   3.320 -10.628  0.00  0.00    +0.046 A 
ENDBRANCH   7   8
ENDBRANCH   1   7
BRANCH   4  14
ATOM     14  C   UNL     1     -14.020   2.218 -16.589  0.00  0.00    +0.042 C 
BRANCH  14  15
ATOM     15  C   UNL     1     -13.046   1.139 -16.537  0.00  0.00    +0.079 C 
BRANCH  15  16
ATOM     16  C   UNL     1     -11.719   1.307 -16.296  0.00  0.00    +0.139 C 
ATOM     17  O   UNL     1     -11.148   2.160 -15.542  0.00  0.00    -0.297 OA
BRANCH  16  18
ATOM     18  C   UNL     1     -10.745   0.321 -16.872  0.00  0.00    +0.021 C 
ATOM     19  C   UNL     1      -9.908   1.452 -17.392  0.00  0.00    +0.018 C 
ATOM     20  C   UNL     1     -11.582  -0.810 -16.351  0.00  0.00    +0.018 C 
ATOM     21  C   UNL     1      -9.772  -0.665 -17.447  0.00  0.00    +0.018 C 
ENDBRANCH  16  18
ENDBRANCH  15  16
ENDBRANCH  14  15
ENDBRANCH   4  14
TORSDOF 6
ENDMDL
MODEL 7
REMARK VINA RESULT:      -7.3      2.426      3.847
REMARK  Name = min_compound985.pdb
REMARK  9 active torsions:
REMARK  status: ('A' for Active; 'I' for Inactive)
REMARK    1  A    between atoms: _1  and  _7
REMARK    2  A    between atoms: _4  and  _14
REMARK    3  A    between atoms: _7  and  _8
REMARK    4  A    between atoms: _14  and  _15
REMARK    5  A    between atoms: _15  and  _16
REMARK    6  A    between atoms: _16  and  _18
REMARK    7  A    between atoms: _18  and  _19
REMARK    8  A    between atoms: _18  and  _20
REMARK    9  A    between atoms: _18  and  _21
REMARK                            x       y       z     vdW  Elec       q    Type
REMARK                         _______ _______ _______ _____ _____    ______ ____
ROOT
ATOM      1  C   UNL     1     -13.910   2.393 -16.298  0.00  0.00    +0.128 A 
ATOM      2  C   UNL     1     -13.274   3.460 -15.668  0.00  0.00    +0.046 A 
ATOM      3  C   UNL     1     -13.893   4.123 -14.603  0.00  0.00    +0.007 A 
ATOM      4  C   UNL     1     -15.166   3.744 -14.160  0.00  0.00    -0.047 A 
ATOM      5  C   UNL     1     -15.794   2.662 -14.794  0.00  0.00    +0.007 A 
ATOM      6  C   UNL     1     -15.179   1.999 -15.868  0.00  0.00    +0.046 A 
ENDROOT
BRANCH   1   7
ATOM      7  O   UNL     1     -13.252   1.860 -17.382  0.00  0.00    -0.456 OA
BRANCH   7   8
ATOM      8  C   UNL     1     -12.140   1.077 -17.188  0.00  0.00    +0.128 A 
ATOM      9  C   UNL     1     -10.912   1.649 -17.528  0.00  0.00    +0.046 A 
ATOM     10  C   UNL     1      -9.726   0.951 -17.302  0.00  0.00    +0.004 A 
ATOM     11  C   UNL     1      -9.767  -0.317 -16.721  0.00  0.00    +0.000 A 
ATOM     12  C   UNL     1     -10.991  -0.880 -16.358  0.00  0.00    +0.004 A 
ATOM     13  C   UNL     1     -12.180  -0.179 -16.579  0.00  0.00    +0.046 A 
ENDBRANCH   7   8
ENDBRANCH   1   7
BRANCH   4  14
ATOM     14  C   UNL     1     -15.835   4.444 -13.046  0.00  0.00    +0.042 C 
BRANCH  14  15
ATOM     15  C   UNL     1     -15.736   5.858 -12.722  0.00  0.00    +0.079 C 
BRANCH  15  16
ATOM     16  C   UNL     1     -16.660   6.796 -13.062  0.00  0.00    +0.139 C 
ATOM     17  O   UNL     1     -17.426   7.471 -12.299  0.00  0.00    -0.297 OA
BRANCH  16  18
ATOM     18  C   UNL     1     -16.767   7.226 -14.495  0.00  0.00    +0.021 C 
ATOM     19  C   UNL     1     -15.415   7.869 -14.404  0.00  0.00    +0.018 C 
ATOM     20  C   UNL     1     -18.119   6.583 -14.586  0.00  0.00    +0.018 C 
ATOM     21  C   UNL     1     -16.875   7.655 -15.928  0.00  0.00    +0.018 C 
ENDBRANCH  16  18
ENDBRANCH  15  16
ENDBRANCH  14  15
ENDBRANCH   4  14
TORSDOF 6
ENDMDL
MODEL 8
REMARK VINA RESULT:      -7.0      2.587      3.832
REMARK  Name = min_compound985.pdb
REMARK  9 active torsions:
REMARK  status: ('A' for Active; 'I' for Inactive)
REMARK    1  A    between atoms: _1  and  _7
REMARK    2  A    between atoms: _4  and  _14
REMARK    3  A    between atoms: _7  and  _8
REMARK    4  A    between atoms: _14  and  _15
REMARK    5  A    between atoms: _15  and  _16
REMARK    6  A    between atoms: _16  and  _18
REMARK    7  A    between atoms: _18  and  _19
REMARK    8  A    between atoms: _18  and  _20
REMARK    9  A    between atoms: _18  and  _21
REMARK                            x       y       z     vdW  Elec       q    Type
REMARK                         _______ _______ _______ _____ _____    ______ ____
ROOT
ATOM      1  C   UNL     1     -14.086   2.666 -16.332  0.00  0.00    +0.128 A 
ATOM      2  C   UNL     1     -15.101   1.945 -15.708  0.00  0.00    +0.046 A 
ATOM      3  C   UNL     1     -15.966   2.576 -14.810  0.00  0.00    +0.007 A 
ATOM      4  C   UNL     1     -15.823   3.935 -14.503  0.00  0.00    -0.047 A 
ATOM      5  C   UNL     1     -14.803   4.655 -15.143  0.00  0.00    +0.007 A 
ATOM      6  C   UNL     1     -13.928   4.023 -16.041  0.00  0.00    +0.046 A 
ENDROOT
BRANCH   1   7
ATOM      7  O   UNL     1     -13.242   1.937 -17.138  0.00  0.00    -0.456 OA
BRANCH   7   8
ATOM      8  C   UNL     1     -12.191   1.250 -16.581  0.00  0.00    +0.128 A 
ATOM      9  C   UNL     1     -12.102  -0.107 -16.897  0.00  0.00    +0.046 A 
ATOM     10  C   UNL     1     -11.029  -0.867 -16.429  0.00  0.00    +0.004 A 
ATOM     11  C   UNL     1     -10.037  -0.265 -15.654  0.00  0.00    +0.000 A 
ATOM     12  C   UNL     1     -10.113   1.097 -15.358  0.00  0.00    +0.004 A 
ATOM     13  C   UNL     1     -11.184   1.861 -15.831  0.00  0.00    +0.046 A 
ENDBRANCH   7   8
ENDBRANCH   1   7
BRANCH   4  14
ATOM     14  C   UNL     1     -16.721   4.609 -13.546  0.00  0.00    +0.042 C 
BRANCH  14  15
ATOM     15  C   UNL     1     -17.659   5.681 -13.838  0.00  0.00    +0.079 C 
BRANCH  15  16
ATOM     16  C   UNL     1     -17.353   7.005 -13.810  0.00  0.00    +0.139 C 
ATOM     17  O   UNL     1     -17.426   7.818 -12.831  0.00  0.00    -0.297 OA
BRANCH  16  18
ATOM     18  C   UNL     1     -16.736   7.635 -15.023  0.00  0.00    +0.021 C 
ATOM     19  C   UNL     1     -17.925   7.227 -15.840  0.00  0.00    +0.018 C 
ATOM     20  C   UNL     1     -15.546   8.044 -14.205  0.00  0.00    +0.018 C 
ATOM     21  C   UNL     1     -16.118   8.266 -16.236  0.00  0.00    +0.018 C 
ENDBRANCH  16  18
ENDBRANCH  15  16
ENDBRANCH  14  15
ENDBRANCH   4  14
TORSDOF 6
ENDMDL
MODEL 9
REMARK VINA RESULT:      -7.0      7.265     11.279
REMARK  Name = min_compound985.pdb
REMARK  9 active torsions:
REMARK  status: ('A' for Active; 'I' for Inactive)
REMARK    1  A    between atoms: _1  and  _7
REMARK    2  A    between atoms: _4  and  _14
REMARK    3  A    between atoms: _7  and  _8
REMARK    4  A    between atoms: _14  and  _15
REMARK    5  A    between atoms: _15  and  _16
REMARK    6  A    between atoms: _16  and  _18
REMARK    7  A    between atoms: _18  and  _19
REMARK    8  A    between atoms: _18  and  _20
REMARK    9  A    between atoms: _18  and  _21
REMARK                            x       y       z     vdW  Elec       q    Type
REMARK                         _______ _______ _______ _____ _____    ______ ____
ROOT
ATOM      1  C   UNL     1     -14.444  -1.024  -3.039  0.00  0.00    +0.128 A 
ATOM      2  C   UNL     1     -14.694  -1.716  -4.221  0.00  0.00    +0.046 A 
ATOM      3  C   UNL     1     -14.557  -1.076  -5.457  0.00  0.00    +0.007 A 
ATOM      4  C   UNL     1     -14.187   0.272  -5.534  0.00  0.00    -0.047 A 
ATOM      5  C   UNL     1     -13.928   0.958  -4.338  0.00  0.00    +0.007 A 
ATOM      6  C   UNL     1     -14.071   0.321  -3.095  0.00  0.00    +0.046 A 
ENDROOT
BRANCH   1   7
ATOM      7  O   UNL     1     -14.681  -1.721  -1.876  0.00  0.00    -0.456 OA
BRANCH   7   8
ATOM      8  C   UNL     1     -14.553  -3.088  -1.862  0.00  0.00    +0.128 A 
ATOM      9  C   UNL     1     -13.311  -3.590  -1.466  0.00  0.00    +0.046 A 
ATOM     10  C   UNL     1     -13.112  -4.966  -1.358  0.00  0.00    +0.004 A 
ATOM     11  C   UNL     1     -14.162  -5.843  -1.634  0.00  0.00    +0.000 A 
ATOM     12  C   UNL     1     -15.411  -5.342  -2.007  0.00  0.00    +0.004 A 
ATOM     13  C   UNL     1     -15.612  -3.963  -2.110  0.00  0.00    +0.046 A 
ENDBRANCH   7   8
ENDBRANCH   1   7
BRANCH   4  14
ATOM     14  C   UNL     1     -14.053   0.963  -6.831  0.00  0.00    +0.042 C 
BRANCH  14  15
ATOM     15  C   UNL     1     -15.133   1.445  -7.676  0.00  0.00    +0.079 C 
BRANCH  15  16
ATOM     16  C   UNL     1     -16.375   1.775  -7.231  0.00  0.00    +0.139 C 
ATOM     17  O   UNL     1     -16.912   2.928  -7.153  0.00  0.00    -0.297 OA
BRANCH  16  18
ATOM     18  C   UNL     1     -17.335   0.679  -6.876  0.00  0.00    +0.021 C 
ATOM     19  C   UNL     1     -17.677   1.392  -5.601  0.00  0.00    +0.018 C 
ATOM     20  C   UNL     1     -16.993  -0.033  -8.151  0.00  0.00    +0.018 C 
ATOM     21  C   UNL     1     -18.295  -0.417  -6.521  0.00  0.00    +0.018 C 
ENDBRANCH  16  18
ENDBRANCH  15  16
ENDBRANCH  14  15
ENDBRANCH   4  14
TORSDOF 6
ENDMDL
