MODEL 1
REMARK VINA RESULT:      -6.0      0.000      0.000
REMARK  Name = min_compound958.pdb
REMARK  8 active torsions:
REMARK  status: ('A' for Active; 'I' for Inactive)
REMARK    1  A    between atoms: _8  and  _15
REMARK    2  A    between atoms: _9  and  _10
REMARK    3  A    between atoms: _10  and  _12
REMARK    4  A    between atoms: _12  and  _16
REMARK    5  A    between atoms: _14  and  _15
REMARK    6  A    between atoms: _14  and  _18
REMARK    7  A    between atoms: _16  and  _17
REMARK    8  A    between atoms: _18  and  _19
REMARK                            x       y       z     vdW  Elec       q    Type
REMARK                         _______ _______ _______ _____ _____    ______ ____
ROOT
ATOM      1  C   UNL     1      -9.719   0.113 -17.362  0.00  0.00    +0.005 C 
ATOM      2  C   UNL     1     -10.315  -0.743 -16.284  0.00  0.00    +0.005 C 
ATOM      3  C   UNL     1     -11.926  -0.418 -16.635  0.00  0.00    +0.042 C 
ATOM      4  C   UNL     1     -12.244   1.048 -16.538  0.00  0.00    -0.013 C 
ATOM      5  S   UNL     1     -13.810   1.705 -16.316  0.00  0.00    -0.106 S 
ATOM      6  C   UNL     1     -13.141   3.216 -15.790  0.00  0.00    +0.152 C 
ATOM      7  C   UNL     1     -11.870   3.352 -16.370  0.00  0.00    +0.155 C 
ATOM      8  C   UNL     1     -11.311   2.039 -16.709  0.00  0.00    -0.044 C 
ATOM      9  C   UNL     1      -9.908   1.664 -17.139  0.00  0.00    +0.032 C 
ENDROOT
BRANCH   6  10
ATOM     10  N   UNL     1     -13.956   4.167 -15.132  0.00  0.00    -0.313 N 
ATOM     11  H   UNL     1     -13.978   4.038 -14.123  0.00  0.00    +0.149 HD
BRANCH  10  12
ATOM     12  C   UNL     1     -15.001   4.997 -15.539  0.00  0.00    +0.131 C 
ATOM     13  S   UNL     1     -16.460   4.877 -14.727  0.00  0.00    -0.019 S 
BRANCH  12  14
ATOM     14  N   UNL     1     -14.941   5.820 -16.645  0.00  0.00    -0.330 N 
ATOM     15  H   UNL     1     -14.928   5.454 -17.590  0.00  0.00    +0.147 HD
ATOM     16  C   UNL     1     -14.902   7.276 -16.286  0.00  0.00    +0.127 C 
ENDBRANCH  12  14
ENDBRANCH  10  12
ENDBRANCH   6  10
BRANCH   7  17
ATOM     17  C   UNL     1     -11.149   4.612 -16.517  0.00  0.00    +0.317 C 
ATOM     18  O   UNL     1      -9.960   4.741 -16.252  0.00  0.00    -0.250 OA
BRANCH  17  19
ATOM     19  O   UNL     1     -11.920   5.590 -17.082  0.00  0.00    -0.464 OA
BRANCH  19  20
ATOM     20  C   UNL     1     -11.859   5.674 -18.513  0.00  0.00    +0.229 C 
ATOM     21  C   UNL     1     -11.863   7.128 -18.959  0.00  0.00    +0.048 C 
ENDBRANCH  19  20
ENDBRANCH  17  19
ENDBRANCH   7  17
TORSDOF 6
ENDMDL
MODEL 2
REMARK VINA RESULT:      -5.9      2.702      4.055
REMARK  Name = min_compound958.pdb
REMARK  8 active torsions:
REMARK  status: ('A' for Active; 'I' for Inactive)
REMARK    1  A    between atoms: _8  and  _15
REMARK    2  A    between atoms: _9  and  _10
REMARK    3  A    between atoms: _10  and  _12
REMARK    4  A    between atoms: _12  and  _16
REMARK    5  A    between atoms: _14  and  _15
REMARK    6  A    between atoms: _14  and  _18
REMARK    7  A    between atoms: _16  and  _17
REMARK    8  A    between atoms: _18  and  _19
REMARK                            x       y       z     vdW  Elec       q    Type
REMARK                         _______ _______ _______ _____ _____    ______ ____
ROOT
ATOM      1  C   UNL     1     -11.469  -0.982 -16.280  0.00  0.00    +0.005 C 
ATOM      2  C   UNL     1     -10.234  -0.633 -17.057  0.00  0.00    +0.005 C 
ATOM      3  C   UNL     1      -9.835   0.751 -16.191  0.00  0.00    +0.042 C 
ATOM      4  C   UNL     1     -10.929   1.782 -16.230  0.00  0.00    -0.013 C 
ATOM      5  S   UNL     1     -10.719   3.455 -15.931  0.00  0.00    -0.106 S 
ATOM      6  C   UNL     1     -12.224   3.820 -16.712  0.00  0.00    +0.152 C 
ATOM      7  C   UNL     1     -13.051   2.692 -16.605  0.00  0.00    +0.155 C 
ATOM      8  C   UNL     1     -12.252   1.476 -16.426  0.00  0.00    -0.044 C 
ATOM      9  C   UNL     1     -12.671   0.021 -16.485  0.00  0.00    +0.032 C 
ENDROOT
BRANCH   6  10
ATOM     10  N   UNL     1     -12.528   5.149 -17.088  0.00  0.00    -0.313 N 
ATOM     11  H   UNL     1     -12.882   5.708 -16.315  0.00  0.00    +0.149 HD
BRANCH  10  12
ATOM     12  C   UNL     1     -12.799   5.777 -18.304  0.00  0.00    +0.131 C 
ATOM     13  S   UNL     1     -11.957   7.176 -18.671  0.00  0.00    -0.019 S 
BRANCH  12  14
ATOM     14  N   UNL     1     -13.805   5.382 -19.163  0.00  0.00    -0.330 N 
ATOM     15  H   UNL     1     -14.782   5.577 -18.976  0.00  0.00    +0.147 HD
ATOM     16  C   UNL     1     -13.288   4.657 -20.370  0.00  0.00    +0.127 C 
ENDBRANCH  12  14
ENDBRANCH  10  12
ENDBRANCH   6  10
BRANCH   7  17
ATOM     17  C   UNL     1     -14.503   2.702 -16.761  0.00  0.00    +0.317 C 
ATOM     18  O   UNL     1     -15.064   3.035 -17.797  0.00  0.00    -0.250 OA
BRANCH  17  19
ATOM     19  O   UNL     1     -15.147   2.198 -15.665  0.00  0.00    -0.464 OA
BRANCH  19  20
ATOM     20  C   UNL     1     -15.565   3.169 -14.694  0.00  0.00    +0.229 C 
ATOM     21  C   UNL     1     -16.776   2.663 -13.927  0.00  0.00    +0.048 C 
ENDBRANCH  19  20
ENDBRANCH  17  19
ENDBRANCH   7  17
TORSDOF 6
ENDMDL
MODEL 3
REMARK VINA RESULT:      -5.9      3.079      3.613
REMARK  Name = min_compound958.pdb
REMARK  8 active torsions:
REMARK  status: ('A' for Active; 'I' for Inactive)
REMARK    1  A    between atoms: _8  and  _15
REMARK    2  A    between atoms: _9  and  _10
REMARK    3  A    between atoms: _10  and  _12
REMARK    4  A    between atoms: _12  and  _16
REMARK    5  A    between atoms: _14  and  _15
REMARK    6  A    between atoms: _14  and  _18
REMARK    7  A    between atoms: _16  and  _17
REMARK    8  A    between atoms: _18  and  _19
REMARK                            x       y       z     vdW  Elec       q    Type
REMARK                         _______ _______ _______ _____ _____    ______ ____
ROOT
ATOM      1  C   UNL     1     -11.278  -1.067 -16.071  0.00  0.00    +0.005 C 
ATOM      2  C   UNL     1      -9.813  -0.749 -16.018  0.00  0.00    +0.005 C 
ATOM      3  C   UNL     1      -9.954   0.713 -15.201  0.00  0.00    +0.042 C 
ATOM      4  C   UNL     1     -10.798   1.705 -15.951  0.00  0.00    -0.013 C 
ATOM      5  S   UNL     1     -10.758   3.403 -15.728  0.00  0.00    -0.106 S 
ATOM      6  C   UNL     1     -11.526   3.658 -17.262  0.00  0.00    +0.152 C 
ATOM      7  C   UNL     1     -12.291   2.520 -17.557  0.00  0.00    +0.155 C 
ATOM      8  C   UNL     1     -11.772   1.347 -16.848  0.00  0.00    -0.044 C 
ATOM      9  C   UNL     1     -12.115  -0.120 -17.016  0.00  0.00    +0.032 C 
ENDROOT
BRANCH   6  10
ATOM     10  N   UNL     1     -11.524   4.943 -17.855  0.00  0.00    -0.313 N 
ATOM     11  H   UNL     1     -10.587   5.323 -17.971  0.00  0.00    +0.149 HD
BRANCH  10  12
ATOM     12  C   UNL     1     -12.478   5.953 -17.990  0.00  0.00    +0.131 C 
ATOM     13  S   UNL     1     -12.076   7.294 -18.908  0.00  0.00    -0.019 S 
BRANCH  12  14
ATOM     14  N   UNL     1     -13.681   5.966 -17.313  0.00  0.00    -0.330 N 
ATOM     15  H   UNL     1     -13.778   5.592 -16.377  0.00  0.00    +0.147 HD
ATOM     16  C   UNL     1     -14.789   6.588 -18.110  0.00  0.00    +0.127 C 
ENDBRANCH  12  14
ENDBRANCH  10  12
ENDBRANCH   6  10
BRANCH   7  17
ATOM     17  C   UNL     1     -13.385   2.475 -18.523  0.00  0.00    +0.317 C 
ATOM     18  O   UNL     1     -14.471   3.007 -18.333  0.00  0.00    -0.250 OA
BRANCH  17  19
ATOM     19  O   UNL     1     -13.021   1.871 -19.694  0.00  0.00    -0.464 OA
BRANCH  19  20
ATOM     20  C   UNL     1     -13.953   2.007 -20.776  0.00  0.00    +0.229 C 
ATOM     21  C   UNL     1     -13.287   1.659 -22.097  0.00  0.00    +0.048 C 
ENDBRANCH  19  20
ENDBRANCH  17  19
ENDBRANCH   7  17
TORSDOF 6
ENDMDL
MODEL 4
REMARK VINA RESULT:      -5.4      2.535      2.873
REMARK  Name = min_compound958.pdb
REMARK  8 active torsions:
REMARK  status: ('A' for Active; 'I' for Inactive)
REMARK    1  A    between atoms: _8  and  _15
REMARK    2  A    between atoms: _9  and  _10
REMARK    3  A    between atoms: _10  and  _12
REMARK    4  A    between atoms: _12  and  _16
REMARK    5  A    between atoms: _14  and  _15
REMARK    6  A    between atoms: _14  and  _18
REMARK    7  A    between atoms: _16  and  _17
REMARK    8  A    between atoms: _18  and  _19
REMARK                            x       y       z     vdW  Elec       q    Type
REMARK                         _______ _______ _______ _____ _____    ______ ____
ROOT
ATOM      1  C   UNL     1     -10.106   0.721 -15.667  0.00  0.00    +0.005 C 
ATOM      2  C   UNL     1     -10.696  -0.548 -16.205  0.00  0.00    +0.005 C 
ATOM      3  C   UNL     1     -10.918  -0.014 -17.783  0.00  0.00    +0.042 C 
ATOM      4  C   UNL     1     -11.816   1.190 -17.855  0.00  0.00    -0.013 C 
ATOM      5  S   UNL     1     -12.676   1.699 -19.246  0.00  0.00    -0.106 S 
ATOM      6  C   UNL     1     -13.739   2.669 -18.278  0.00  0.00    +0.152 C 
ATOM      7  C   UNL     1     -13.050   3.034 -17.112  0.00  0.00    +0.155 C 
ATOM      8  C   UNL     1     -11.977   2.077 -16.821  0.00  0.00    -0.044 C 
ATOM      9  C   UNL     1     -11.123   1.925 -15.579  0.00  0.00    +0.032 C 
ENDROOT
BRANCH   6  10
ATOM     10  N   UNL     1     -14.948   3.162 -18.823  0.00  0.00    -0.313 N 
ATOM     11  H   UNL     1     -15.675   2.452 -18.877  0.00  0.00    +0.149 HD
BRANCH  10  12
ATOM     12  C   UNL     1     -15.278   4.257 -19.622  0.00  0.00    +0.131 C 
ATOM     13  S   UNL     1     -15.495   3.997 -21.261  0.00  0.00    -0.019 S 
BRANCH  12  14
ATOM     14  N   UNL     1     -15.316   5.558 -19.161  0.00  0.00    -0.330 N 
ATOM     15  H   UNL     1     -15.440   5.780 -18.181  0.00  0.00    +0.147 HD
ATOM     16  C   UNL     1     -15.151   6.568 -20.258  0.00  0.00    +0.127 C 
ENDBRANCH  12  14
ENDBRANCH  10  12
ENDBRANCH   6  10
BRANCH   7  17
ATOM     17  C   UNL     1     -13.413   4.147 -16.240  0.00  0.00    +0.317 C 
ATOM     18  O   UNL     1     -13.680   4.010 -15.053  0.00  0.00    -0.250 OA
BRANCH  17  19
ATOM     19  O   UNL     1     -13.316   5.355 -16.871  0.00  0.00    -0.464 OA
BRANCH  19  20
ATOM     20  C   UNL     1     -11.997   5.721 -17.303  0.00  0.00    +0.229 C 
ATOM     21  C   UNL     1     -12.056   6.941 -18.210  0.00  0.00    +0.048 C 
ENDBRANCH  19  20
ENDBRANCH  17  19
ENDBRANCH   7  17
TORSDOF 6
ENDMDL
MODEL 5
REMARK VINA RESULT:      -5.3      3.049      4.019
REMARK  Name = min_compound958.pdb
REMARK  8 active torsions:
REMARK  status: ('A' for Active; 'I' for Inactive)
REMARK    1  A    between atoms: _8  and  _15
REMARK    2  A    between atoms: _9  and  _10
REMARK    3  A    between atoms: _10  and  _12
REMARK    4  A    between atoms: _12  and  _16
REMARK    5  A    between atoms: _14  and  _15
REMARK    6  A    between atoms: _14  and  _18
REMARK    7  A    between atoms: _16  and  _17
REMARK    8  A    between atoms: _18  and  _19
REMARK                            x       y       z     vdW  Elec       q    Type
REMARK                         _______ _______ _______ _____ _____    ______ ____
ROOT
ATOM      1  C   UNL     1     -10.158   0.764 -15.591  0.00  0.00    +0.005 C 
ATOM      2  C   UNL     1     -10.692  -0.505 -16.186  0.00  0.00    +0.005 C 
ATOM      3  C   UNL     1     -10.892   0.074 -17.751  0.00  0.00    +0.042 C 
ATOM      4  C   UNL     1     -11.826   1.250 -17.808  0.00  0.00    -0.013 C 
ATOM      5  S   UNL     1     -12.666   1.777 -19.204  0.00  0.00    -0.106 S 
ATOM      6  C   UNL     1     -13.785   2.679 -18.234  0.00  0.00    +0.152 C 
ATOM      7  C   UNL     1     -13.139   3.027 -17.039  0.00  0.00    +0.155 C 
ATOM      8  C   UNL     1     -12.043   2.097 -16.751  0.00  0.00    -0.044 C 
ATOM      9  C   UNL     1     -11.217   1.930 -15.491  0.00  0.00    +0.032 C 
ENDROOT
BRANCH   6  10
ATOM     10  N   UNL     1     -14.995   3.151 -18.795  0.00  0.00    -0.313 N 
ATOM     11  H   UNL     1     -15.819   2.777 -18.329  0.00  0.00    +0.149 HD
BRANCH  10  12
ATOM     12  C   UNL     1     -15.344   3.706 -20.027  0.00  0.00    +0.131 C 
ATOM     13  S   UNL     1     -15.112   5.349 -20.243  0.00  0.00    -0.019 S 
BRANCH  12  14
ATOM     14  N   UNL     1     -15.982   3.004 -21.030  0.00  0.00    -0.330 N 
ATOM     15  H   UNL     1     -16.973   2.797 -20.998  0.00  0.00    +0.147 HD
ATOM     16  C   UNL     1     -15.055   2.604 -22.140  0.00  0.00    +0.127 C 
ENDBRANCH  12  14
ENDBRANCH  10  12
ENDBRANCH   6  10
BRANCH   7  17
ATOM     17  C   UNL     1     -13.561   4.098 -16.141  0.00  0.00    +0.317 C 
ATOM     18  O   UNL     1     -13.601   5.276 -16.472  0.00  0.00    -0.250 OA
BRANCH  17  19
ATOM     19  O   UNL     1     -14.005   3.623 -14.938  0.00  0.00    -0.464 OA
BRANCH  19  20
ATOM     20  C   UNL     1     -15.428   3.639 -14.755  0.00  0.00    +0.229 C 
ATOM     21  C   UNL     1     -16.003   2.244 -14.944  0.00  0.00    +0.048 C 
ENDBRANCH  19  20
ENDBRANCH  17  19
ENDBRANCH   7  17
TORSDOF 6
ENDMDL
MODEL 6
REMARK VINA RESULT:      -5.3      2.719      5.721
REMARK  Name = min_compound958.pdb
REMARK  8 active torsions:
REMARK  status: ('A' for Active; 'I' for Inactive)
REMARK    1  A    between atoms: _8  and  _15
REMARK    2  A    between atoms: _9  and  _10
REMARK    3  A    between atoms: _10  and  _12
REMARK    4  A    between atoms: _12  and  _16
REMARK    5  A    between atoms: _14  and  _15
REMARK    6  A    between atoms: _14  and  _18
REMARK    7  A    between atoms: _16  and  _17
REMARK    8  A    between atoms: _18  and  _19
REMARK                            x       y       z     vdW  Elec       q    Type
REMARK                         _______ _______ _______ _____ _____    ______ ____
ROOT
ATOM      1  C   UNL     1     -12.363   7.339 -18.789  0.00  0.00    +0.005 C 
ATOM      2  C   UNL     1     -11.923   6.956 -20.171  0.00  0.00    +0.005 C 
ATOM      3  C   UNL     1     -13.047   5.729 -20.408  0.00  0.00    +0.042 C 
ATOM      4  C   UNL     1     -12.930   4.644 -19.374  0.00  0.00    -0.013 C 
ATOM      5  S   UNL     1     -13.509   3.042 -19.556  0.00  0.00    -0.106 S 
ATOM      6  C   UNL     1     -12.491   2.490 -18.264  0.00  0.00    +0.152 C 
ATOM      7  C   UNL     1     -12.256   3.574 -17.406  0.00  0.00    +0.155 C 
ATOM      8  C   UNL     1     -12.418   4.846 -18.118  0.00  0.00    -0.044 C 
ATOM      9  C   UNL     1     -12.059   6.253 -17.685  0.00  0.00    +0.032 C 
ENDROOT
BRANCH   6  10
ATOM     10  N   UNL     1     -12.259   1.106 -18.082  0.00  0.00    -0.313 N 
ATOM     11  H   UNL     1     -13.063   0.534 -18.331  0.00  0.00    +0.149 HD
BRANCH  10  12
ATOM     12  C   UNL     1     -11.351   0.365 -17.324  0.00  0.00    +0.131 C 
ATOM     13  S   UNL     1      -9.722   0.713 -17.488  0.00  0.00    -0.019 S 
BRANCH  12  14
ATOM     14  N   UNL     1     -11.708  -0.716 -16.543  0.00  0.00    -0.330 N 
ATOM     15  H   UNL     1     -12.647  -1.097 -16.545  0.00  0.00    +0.147 HD
ATOM     16  C   UNL     1     -10.568  -1.241 -15.722  0.00  0.00    +0.127 C 
ENDBRANCH  12  14
ENDBRANCH  10  12
ENDBRANCH   6  10
BRANCH   7  17
ATOM     17  C   UNL     1     -11.801   3.462 -16.023  0.00  0.00    +0.317 C 
ATOM     18  O   UNL     1     -10.709   3.864 -15.640  0.00  0.00    -0.250 OA
BRANCH  17  19
ATOM     19  O   UNL     1     -12.768   2.962 -15.196  0.00  0.00    -0.464 OA
BRANCH  19  20
ATOM     20  C   UNL     1     -13.971   3.740 -15.112  0.00  0.00    +0.229 C 
ATOM     21  C   UNL     1     -15.189   2.861 -15.347  0.00  0.00    +0.048 C 
ENDBRANCH  19  20
ENDBRANCH  17  19
ENDBRANCH   7  17
TORSDOF 6
ENDMDL
MODEL 7
REMARK VINA RESULT:      -5.3     12.782     13.791
REMARK  Name = min_compound958.pdb
REMARK  8 active torsions:
REMARK  status: ('A' for Active; 'I' for Inactive)
REMARK    1  A    between atoms: _8  and  _15
REMARK    2  A    between atoms: _9  and  _10
REMARK    3  A    between atoms: _10  and  _12
REMARK    4  A    between atoms: _12  and  _16
REMARK    5  A    between atoms: _14  and  _15
REMARK    6  A    between atoms: _14  and  _18
REMARK    7  A    between atoms: _16  and  _17
REMARK    8  A    between atoms: _18  and  _19
REMARK                            x       y       z     vdW  Elec       q    Type
REMARK                         _______ _______ _______ _____ _____    ______ ____
ROOT
ATOM      1  C   UNL     1     -14.485  -2.194  -1.762  0.00  0.00    +0.005 C 
ATOM      2  C   UNL     1     -15.635  -2.129  -0.801  0.00  0.00    +0.005 C 
ATOM      3  C   UNL     1     -16.850  -1.960  -1.951  0.00  0.00    +0.042 C 
ATOM      4  C   UNL     1     -16.659  -0.737  -2.803  0.00  0.00    -0.013 C 
ATOM      5  S   UNL     1     -17.893   0.045  -3.698  0.00  0.00    -0.106 S 
ATOM      6  C   UNL     1     -16.937   1.487  -3.822  0.00  0.00    +0.152 C 
ATOM      7  C   UNL     1     -15.586   1.119  -3.740  0.00  0.00    +0.155 C 
ATOM      8  C   UNL     1     -15.437  -0.157  -3.033  0.00  0.00    -0.044 C 
ATOM      9  C   UNL     1     -14.188  -0.837  -2.512  0.00  0.00    +0.032 C 
ENDROOT
BRANCH   6  10
ATOM     10  N   UNL     1     -17.535   2.705  -4.223  0.00  0.00    -0.313 N 
ATOM     11  H   UNL     1     -17.752   2.731  -5.217  0.00  0.00    +0.149 HD
BRANCH  10  12
ATOM     12  C   UNL     1     -17.573   3.992  -3.685  0.00  0.00    +0.131 C 
ATOM     13  S   UNL     1     -18.989   4.492  -2.945  0.00  0.00    -0.019 S 
BRANCH  12  14
ATOM     14  N   UNL     1     -16.559   4.916  -3.835  0.00  0.00    -0.330 N 
ATOM     15  H   UNL     1     -15.581   4.652  -3.821  0.00  0.00    +0.147 HD
ATOM     16  C   UNL     1     -17.070   6.315  -4.020  0.00  0.00    +0.127 C 
ENDBRANCH  12  14
ENDBRANCH  10  12
ENDBRANCH   6  10
BRANCH   7  17
ATOM     17  C   UNL     1     -14.467   1.941  -4.191  0.00  0.00    +0.317 C 
ATOM     18  O   UNL     1     -14.213   3.045  -3.726  0.00  0.00    -0.250 OA
BRANCH  17  19
ATOM     19  O   UNL     1     -13.683   1.294  -5.105  0.00  0.00    -0.464 OA
BRANCH  19  20
ATOM     20  C   UNL     1     -14.295   1.047  -6.379  0.00  0.00    +0.229 C 
ATOM     21  C   UNL     1     -14.369  -0.447  -6.651  0.00  0.00    +0.048 C 
ENDBRANCH  19  20
ENDBRANCH  17  19
ENDBRANCH   7  17
TORSDOF 6
ENDMDL
MODEL 8
REMARK VINA RESULT:      -5.1     12.561     13.576
REMARK  Name = min_compound958.pdb
REMARK  8 active torsions:
REMARK  status: ('A' for Active; 'I' for Inactive)
REMARK    1  A    between atoms: _8  and  _15
REMARK    2  A    between atoms: _9  and  _10
REMARK    3  A    between atoms: _10  and  _12
REMARK    4  A    between atoms: _12  and  _16
REMARK    5  A    between atoms: _14  and  _15
REMARK    6  A    between atoms: _14  and  _18
REMARK    7  A    between atoms: _16  and  _17
REMARK    8  A    between atoms: _18  and  _19
REMARK                            x       y       z     vdW  Elec       q    Type
REMARK                         _______ _______ _______ _____ _____    ______ ____
ROOT
ATOM      1  C   UNL     1     -14.704  -2.439  -1.227  0.00  0.00    +0.005 C 
ATOM      2  C   UNL     1     -15.896  -2.086  -0.388  0.00  0.00    +0.005 C 
ATOM      3  C   UNL     1     -17.069  -2.500  -1.519  0.00  0.00    +0.042 C 
ATOM      4  C   UNL     1     -16.930  -1.718  -2.795  0.00  0.00    -0.013 C 
ATOM      5  S   UNL     1     -18.177  -1.472  -3.943  0.00  0.00    -0.106 S 
ATOM      6  C   UNL     1     -17.324  -0.131  -4.636  0.00  0.00    +0.152 C 
ATOM      7  C   UNL     1     -15.954  -0.320  -4.397  0.00  0.00    +0.155 C 
ATOM      8  C   UNL     1     -15.744  -1.182  -3.230  0.00  0.00    -0.044 C 
ATOM      9  C   UNL     1     -14.473  -1.485  -2.463  0.00  0.00    +0.032 C 
ENDROOT
BRANCH   6  10
ATOM     10  N   UNL     1     -17.989   0.765  -5.505  0.00  0.00    -0.313 N 
ATOM     11  H   UNL     1     -18.778   1.232  -5.063  0.00  0.00    +0.149 HD
BRANCH  10  12
ATOM     12  C   UNL     1     -18.060   0.902  -6.892  0.00  0.00    +0.131 C 
ATOM     13  S   UNL     1     -19.311   0.133  -7.695  0.00  0.00    -0.019 S 
BRANCH  12  14
ATOM     14  N   UNL     1     -17.092   1.530  -7.650  0.00  0.00    -0.330 N 
ATOM     15  H   UNL     1     -16.412   1.013  -8.195  0.00  0.00    +0.147 HD
ATOM     16  C   UNL     1     -17.173   3.026  -7.573  0.00  0.00    +0.127 C 
ENDBRANCH  12  14
ENDBRANCH  10  12
ENDBRANCH   6  10
BRANCH   7  17
ATOM     17  C   UNL     1     -14.878   0.338  -5.134  0.00  0.00    +0.317 C 
ATOM     18  O   UNL     1     -13.995  -0.274  -5.721  0.00  0.00    -0.250 OA
BRANCH  17  19
ATOM     19  O   UNL     1     -15.034   1.695  -5.180  0.00  0.00    -0.464 OA
BRANCH  19  20
ATOM     20  C   UNL     1     -14.863   2.379  -3.930  0.00  0.00    +0.229 C 
ATOM     21  C   UNL     1     -13.394   2.409  -3.540  0.00  0.00    +0.048 C 
ENDBRANCH  19  20
ENDBRANCH  17  19
ENDBRANCH   7  17
TORSDOF 6
ENDMDL
MODEL 9
REMARK VINA RESULT:      -5.0     14.596     16.117
REMARK  Name = min_compound958.pdb
REMARK  8 active torsions:
REMARK  status: ('A' for Active; 'I' for Inactive)
REMARK    1  A    between atoms: _8  and  _15
REMARK    2  A    between atoms: _9  and  _10
REMARK    3  A    between atoms: _10  and  _12
REMARK    4  A    between atoms: _12  and  _16
REMARK    5  A    between atoms: _14  and  _15
REMARK    6  A    between atoms: _14  and  _18
REMARK    7  A    between atoms: _16  and  _17
REMARK    8  A    between atoms: _18  and  _19
REMARK                            x       y       z     vdW  Elec       q    Type
REMARK                         _______ _______ _______ _____ _____    ______ ____
ROOT
ATOM      1  C   UNL     1     -13.453   1.528  -3.451  0.00  0.00    +0.005 C 
ATOM      2  C   UNL     1     -14.003   1.733  -4.831  0.00  0.00    +0.005 C 
ATOM      3  C   UNL     1     -15.628   1.728  -4.403  0.00  0.00    +0.042 C 
ATOM      4  C   UNL     1     -16.037   0.445  -3.735  0.00  0.00    -0.013 C 
ATOM      5  S   UNL     1     -17.642  -0.143  -3.625  0.00  0.00    -0.106 S 
ATOM      6  C   UNL     1     -17.070  -1.742  -3.275  0.00  0.00    +0.152 C 
ATOM      7  C   UNL     1     -15.806  -1.628  -2.676  0.00  0.00    +0.155 C 
ATOM      8  C   UNL     1     -15.165  -0.364  -3.052  0.00  0.00    -0.044 C 
ATOM      9  C   UNL     1     -13.738   0.100  -2.842  0.00  0.00    +0.032 C 
ENDROOT
BRANCH   6  10
ATOM     10  N   UNL     1     -17.947  -2.848  -3.365  0.00  0.00    -0.313 N 
ATOM     11  H   UNL     1     -18.741  -2.674  -3.978  0.00  0.00    +0.149 HD
BRANCH  10  12
ATOM     12  C   UNL     1     -18.187  -3.966  -2.566  0.00  0.00    +0.131 C 
ATOM     13  S   UNL     1     -19.254  -3.802  -1.286  0.00  0.00    -0.019 S 
BRANCH  12  14
ATOM     14  N   UNL     1     -17.505  -5.160  -2.692  0.00  0.00    -0.330 N 
ATOM     15  H   UNL     1     -16.991  -5.402  -3.531  0.00  0.00    +0.147 HD
ATOM     16  C   UNL     1     -17.614  -6.024  -1.471  0.00  0.00    +0.127 C 
ENDBRANCH  12  14
ENDBRANCH  10  12
ENDBRANCH   6  10
BRANCH   7  17
ATOM     17  C   UNL     1     -15.162  -2.668  -1.879  0.00  0.00    +0.317 C 
ATOM     18  O   UNL     1     -15.076  -2.622  -0.659  0.00  0.00    -0.250 OA
BRANCH  17  19
ATOM     19  O   UNL     1     -14.769  -3.736  -2.637  0.00  0.00    -0.464 OA
BRANCH  19  20
ATOM     20  C   UNL     1     -13.666  -4.491  -2.115  0.00  0.00    +0.229 C 
ATOM     21  C   UNL     1     -13.970  -5.980  -2.171  0.00  0.00    +0.048 C 
ENDBRANCH  19  20
ENDBRANCH  17  19
ENDBRANCH   7  17
TORSDOF 6
ENDMDL
