MODEL 1
REMARK VINA RESULT:      -5.9      0.000      0.000
REMARK  Name = min_compound977.pdb
REMARK  10 active torsions:
REMARK  status: ('A' for Active; 'I' for Inactive)
REMARK    1  A    between atoms: _7  and  _9
REMARK    2  A    between atoms: _9  and  _10
REMARK    3  A    between atoms: _10  and  _11
REMARK    4  A    between atoms: _10  and  _12
REMARK    5  A    between atoms: _12  and  _13
REMARK    6  A    between atoms: _13  and  _14
REMARK    7  A    between atoms: _14  and  _15
REMARK    8  A    between atoms: _15  and  _16
REMARK    9  A    between atoms: _16  and  _17
REMARK   10  A    between atoms: _18  and  _20
REMARK                            x       y       z     vdW  Elec       q    Type
REMARK                         _______ _______ _______ _____ _____    ______ ____
ROOT
ATOM      1  C   UNL     1     -15.760   2.318  -3.872  0.00  0.00    +0.009 A 
ATOM      2  C   UNL     1     -16.047   0.900  -3.642  0.00  0.00    +0.019 A 
ATOM      3  C   UNL     1     -17.177   0.260  -4.035  0.00  0.00    +0.319 C 
ATOM      4  O   UNL     1     -17.285  -1.116  -3.813  0.00  0.00    -0.195 OA
ATOM      5  O   UNL     1     -16.720  -1.425  -2.486  0.00  0.00    -0.195 OA
ATOM      6  C   UNL     1     -15.362  -1.104  -2.505  0.00  0.00    +0.316 C 
ATOM      7  C   UNL     1     -14.979   0.073  -3.043  0.00  0.00    +0.018 A 
ATOM      8  C   UNL     1     -13.605   0.574  -3.132  0.00  0.00    +0.009 A 
ATOM      9  C   UNL     1     -13.388   1.846  -3.521  0.00  0.00    +0.000 A 
ATOM     10  C   UNL     1     -14.489   2.753  -3.816  0.00  0.00    +0.000 A 
ENDROOT
BRANCH   6  11
ATOM     11  O   UNL     1     -14.511  -1.972  -1.856  0.00  0.00    -0.361 OA
ATOM     12  H   UNL     1     -13.984  -1.470  -1.215  0.00  0.00    +0.213 HD
ENDBRANCH   6  11
BRANCH   3  13
ATOM     13  O   UNL     1     -18.158   0.843  -4.840  0.00  0.00    -0.342 OA
BRANCH  13  14
ATOM     14  C   UNL     1     -18.136   0.448  -6.392  0.00  0.00    +0.119 C 
ATOM     15  C   UNL     1     -19.590  -0.125  -6.740  0.00  0.00    +0.038 C 
BRANCH  14  16
ATOM     16  C   UNL     1     -18.462   1.806  -6.937  0.00  0.00    +0.031 C 
BRANCH  16  17
ATOM     17  C   UNL     1     -16.928   2.177  -7.288  0.00  0.00    +0.002 C 
BRANCH  17  18
ATOM     18  C   UNL     1     -16.055   0.951  -7.592  0.00  0.00    +0.000 C 
BRANCH  18  19
ATOM     19  C   UNL     1     -14.594   1.198  -7.205  0.00  0.00    -0.000 C 
BRANCH  19  20
ATOM     20  C   UNL     1     -13.929  -0.075  -6.684  0.00  0.00    -0.003 C 
ATOM     21  C   UNL     1     -14.944  -1.189  -6.480  0.00  0.00    +0.004 C 
ENDBRANCH  19  20
ENDBRANCH  18  19
ENDBRANCH  17  18
ENDBRANCH  16  17
ENDBRANCH  14  16
ENDBRANCH  13  14
ENDBRANCH   3  13
TORSDOF 8
ENDMDL
MODEL 2
REMARK VINA RESULT:      -5.7      9.467     11.837
REMARK  Name = min_compound977.pdb
REMARK  10 active torsions:
REMARK  status: ('A' for Active; 'I' for Inactive)
REMARK    1  A    between atoms: _7  and  _9
REMARK    2  A    between atoms: _9  and  _10
REMARK    3  A    between atoms: _10  and  _11
REMARK    4  A    between atoms: _10  and  _12
REMARK    5  A    between atoms: _12  and  _13
REMARK    6  A    between atoms: _13  and  _14
REMARK    7  A    between atoms: _14  and  _15
REMARK    8  A    between atoms: _15  and  _16
REMARK    9  A    between atoms: _16  and  _17
REMARK   10  A    between atoms: _18  and  _20
REMARK                            x       y       z     vdW  Elec       q    Type
REMARK                         _______ _______ _______ _____ _____    ______ ____
ROOT
ATOM      1  C   UNL     1     -14.855   4.523 -12.934  0.00  0.00    +0.009 A 
ATOM      2  C   UNL     1     -15.183   3.806 -14.168  0.00  0.00    +0.019 A 
ATOM      3  C   UNL     1     -14.308   3.535 -15.167  0.00  0.00    +0.319 C 
ATOM      4  O   UNL     1     -14.742   2.776 -16.258  0.00  0.00    -0.195 OA
ATOM      5  O   UNL     1     -16.112   3.197 -16.609  0.00  0.00    -0.195 OA
ATOM      6  C   UNL     1     -16.948   2.906 -15.530  0.00  0.00    +0.316 C 
ATOM      7  C   UNL     1     -16.539   3.229 -14.285  0.00  0.00    +0.018 A 
ATOM      8  C   UNL     1     -17.291   3.011 -13.045  0.00  0.00    +0.009 A 
ATOM      9  C   UNL     1     -16.844   3.554 -11.896  0.00  0.00    +0.000 A 
ATOM     10  C   UNL     1     -15.652   4.391 -11.859  0.00  0.00    +0.000 A 
ENDROOT
BRANCH   6  11
ATOM     11  O   UNL     1     -18.199   2.412 -15.830  0.00  0.00    -0.361 OA
ATOM     12  H   UNL     1     -18.200   1.455 -15.677  0.00  0.00    +0.213 HD
ENDBRANCH   6  11
BRANCH   3  13
ATOM     13  O   UNL     1     -12.936   3.783 -15.086  0.00  0.00    -0.342 OA
BRANCH  13  14
ATOM     14  C   UNL     1     -12.082   3.519 -16.414  0.00  0.00    +0.119 C 
ATOM     15  C   UNL     1     -11.073   4.753 -16.564  0.00  0.00    +0.038 C 
BRANCH  14  16
ATOM     16  C   UNL     1     -11.034   2.644 -15.795  0.00  0.00    +0.031 C 
BRANCH  16  17
ATOM     17  C   UNL     1     -10.272   2.348 -17.190  0.00  0.00    +0.002 C 
BRANCH  17  18
ATOM     18  C   UNL     1     -10.406   0.894 -17.666  0.00  0.00    +0.000 C 
BRANCH  18  19
ATOM     19  C   UNL     1      -9.274   0.022 -17.117  0.00  0.00    -0.000 C 
BRANCH  19  20
ATOM     20  C   UNL     1      -9.762  -0.885 -15.988  0.00  0.00    -0.003 C 
ATOM     21  C   UNL     1     -11.272  -1.058 -16.027  0.00  0.00    +0.004 C 
ENDBRANCH  19  20
ENDBRANCH  18  19
ENDBRANCH  17  18
ENDBRANCH  16  17
ENDBRANCH  14  16
ENDBRANCH  13  14
ENDBRANCH   3  13
TORSDOF 8
ENDMDL
MODEL 3
REMARK VINA RESULT:      -5.7      9.450     11.756
REMARK  Name = min_compound977.pdb
REMARK  10 active torsions:
REMARK  status: ('A' for Active; 'I' for Inactive)
REMARK    1  A    between atoms: _7  and  _9
REMARK    2  A    between atoms: _9  and  _10
REMARK    3  A    between atoms: _10  and  _11
REMARK    4  A    between atoms: _10  and  _12
REMARK    5  A    between atoms: _12  and  _13
REMARK    6  A    between atoms: _13  and  _14
REMARK    7  A    between atoms: _14  and  _15
REMARK    8  A    between atoms: _15  and  _16
REMARK    9  A    between atoms: _16  and  _17
REMARK   10  A    between atoms: _18  and  _20
REMARK                            x       y       z     vdW  Elec       q    Type
REMARK                         _______ _______ _______ _____ _____    ______ ____
ROOT
ATOM      1  C   UNL     1     -12.537   0.385 -16.858  0.00  0.00    +0.009 A 
ATOM      2  C   UNL     1     -12.388   1.753 -16.356  0.00  0.00    +0.019 A 
ATOM      3  C   UNL     1     -13.403   2.639 -16.200  0.00  0.00    +0.319 C 
ATOM      4  O   UNL     1     -13.126   3.890 -15.640  0.00  0.00    -0.195 OA
ATOM      5  O   UNL     1     -11.840   4.372 -16.179  0.00  0.00    -0.195 OA
ATOM      6  C   UNL     1     -10.837   3.493 -15.767  0.00  0.00    +0.316 C 
ATOM      7  C   UNL     1     -11.054   2.164 -15.873  0.00  0.00    +0.018 A 
ATOM      8  C   UNL     1     -10.111   1.104 -15.504  0.00  0.00    +0.009 A 
ATOM      9  C   UNL     1     -10.386  -0.171 -15.840  0.00  0.00    +0.000 A 
ATOM     10  C   UNL     1     -11.578  -0.522 -16.601  0.00  0.00    +0.000 A 
ENDROOT
BRANCH   6  11
ATOM     11  O   UNL     1      -9.637   4.054 -15.388  0.00  0.00    -0.361 OA
ATOM     12  H   UNL     1      -9.443   3.786 -14.477  0.00  0.00    +0.213 HD
ENDBRANCH   6  11
BRANCH   3  13
ATOM     13  O   UNL     1     -14.751   2.313 -16.364  0.00  0.00    -0.342 OA
BRANCH  13  14
ATOM     14  C   UNL     1     -15.814   3.325 -15.723  0.00  0.00    +0.119 C 
ATOM     15  C   UNL     1     -16.869   3.671 -16.877  0.00  0.00    +0.038 C 
BRANCH  14  16
ATOM     16  C   UNL     1     -16.713   2.292 -15.112  0.00  0.00    +0.031 C 
BRANCH  16  17
ATOM     17  C   UNL     1     -16.560   2.863 -13.607  0.00  0.00    +0.002 C 
BRANCH  17  18
ATOM     18  C   UNL     1     -15.676   4.115 -13.512  0.00  0.00    +0.000 C 
BRANCH  18  19
ATOM     19  C   UNL     1     -16.051   4.970 -12.299  0.00  0.00    -0.000 C 
BRANCH  19  20
ATOM     20  C   UNL     1     -15.177   4.641 -11.089  0.00  0.00    -0.003 C 
ATOM     21  C   UNL     1     -15.947   3.846 -10.047  0.00  0.00    +0.004 C 
ENDBRANCH  19  20
ENDBRANCH  18  19
ENDBRANCH  17  18
ENDBRANCH  16  17
ENDBRANCH  14  16
ENDBRANCH  13  14
ENDBRANCH   3  13
TORSDOF 8
ENDMDL
MODEL 4
REMARK VINA RESULT:      -5.6      1.862      4.733
REMARK  Name = min_compound977.pdb
REMARK  10 active torsions:
REMARK  status: ('A' for Active; 'I' for Inactive)
REMARK    1  A    between atoms: _7  and  _9
REMARK    2  A    between atoms: _9  and  _10
REMARK    3  A    between atoms: _10  and  _11
REMARK    4  A    between atoms: _10  and  _12
REMARK    5  A    between atoms: _12  and  _13
REMARK    6  A    between atoms: _13  and  _14
REMARK    7  A    between atoms: _14  and  _15
REMARK    8  A    between atoms: _15  and  _16
REMARK    9  A    between atoms: _16  and  _17
REMARK   10  A    between atoms: _18  and  _20
REMARK                            x       y       z     vdW  Elec       q    Type
REMARK                         _______ _______ _______ _____ _____    ______ ____
ROOT
ATOM      1  C   UNL     1     -15.499  -0.999  -6.599  0.00  0.00    +0.009 A 
ATOM      2  C   UNL     1     -16.723  -0.253  -6.898  0.00  0.00    +0.019 A 
ATOM      3  C   UNL     1     -17.963  -0.584  -6.459  0.00  0.00    +0.319 C 
ATOM      4  O   UNL     1     -19.034   0.263  -6.761  0.00  0.00    -0.195 OA
ATOM      5  O   UNL     1     -18.877   0.744  -8.146  0.00  0.00    -0.195 OA
ATOM      6  C   UNL     1     -17.706   1.501  -8.216  0.00  0.00    +0.316 C 
ATOM      7  C   UNL     1     -16.587   1.021  -7.634  0.00  0.00    +0.018 A 
ATOM      8  C   UNL     1     -15.274   1.672  -7.622  0.00  0.00    +0.009 A 
ATOM      9  C   UNL     1     -14.202   0.993  -7.169  0.00  0.00    +0.000 A 
ATOM     10  C   UNL     1     -14.306  -0.392  -6.728  0.00  0.00    +0.000 A 
ENDROOT
BRANCH   6  11
ATOM     11  O   UNL     1     -17.750   2.642  -8.987  0.00  0.00    -0.361 OA
ATOM     12  H   UNL     1     -18.666   2.793  -9.266  0.00  0.00    +0.213 HD
ENDBRANCH   6  11
BRANCH   3  13
ATOM     13  O   UNL     1     -18.214  -1.606  -5.541  0.00  0.00    -0.342 OA
BRANCH  13  14
ATOM     14  C   UNL     1     -18.649  -1.152  -4.068  0.00  0.00    +0.119 C 
ATOM     15  C   UNL     1     -19.197  -2.462  -3.328  0.00  0.00    +0.038 C 
BRANCH  14  16
ATOM     16  C   UNL     1     -17.298  -1.269  -3.428  0.00  0.00    +0.031 C 
BRANCH  16  17
ATOM     17  C   UNL     1     -17.199   0.300  -3.050  0.00  0.00    +0.002 C 
BRANCH  17  18
ATOM     18  C   UNL     1     -15.941   0.986  -3.602  0.00  0.00    +0.000 C 
BRANCH  18  19
ATOM     19  C   UNL     1     -14.667   0.305  -3.091  0.00  0.00    -0.000 C 
BRANCH  19  20
ATOM     20  C   UNL     1     -13.414   1.063  -3.527  0.00  0.00    -0.003 C 
ATOM     21  C   UNL     1     -13.675   2.558  -3.630  0.00  0.00    +0.004 C 
ENDBRANCH  19  20
ENDBRANCH  18  19
ENDBRANCH  17  18
ENDBRANCH  16  17
ENDBRANCH  14  16
ENDBRANCH  13  14
ENDBRANCH   3  13
TORSDOF 8
ENDMDL
MODEL 5
REMARK VINA RESULT:      -5.5      3.597      4.463
REMARK  Name = min_compound977.pdb
REMARK  10 active torsions:
REMARK  status: ('A' for Active; 'I' for Inactive)
REMARK    1  A    between atoms: _7  and  _9
REMARK    2  A    between atoms: _9  and  _10
REMARK    3  A    between atoms: _10  and  _11
REMARK    4  A    between atoms: _10  and  _12
REMARK    5  A    between atoms: _12  and  _13
REMARK    6  A    between atoms: _13  and  _14
REMARK    7  A    between atoms: _14  and  _15
REMARK    8  A    between atoms: _15  and  _16
REMARK    9  A    between atoms: _16  and  _17
REMARK   10  A    between atoms: _18  and  _20
REMARK                            x       y       z     vdW  Elec       q    Type
REMARK                         _______ _______ _______ _____ _____    ______ ____
ROOT
ATOM      1  C   UNL     1     -16.046   2.458  -4.961  0.00  0.00    +0.009 A 
ATOM      2  C   UNL     1     -15.906   1.323  -5.877  0.00  0.00    +0.019 A 
ATOM      3  C   UNL     1     -16.457   1.249  -7.114  0.00  0.00    +0.319 C 
ATOM      4  O   UNL     1     -16.179   0.135  -7.911  0.00  0.00    -0.195 OA
ATOM      5  O   UNL     1     -16.188  -1.068  -7.058  0.00  0.00    -0.195 OA
ATOM      6  C   UNL     1     -15.159  -0.948  -6.123  0.00  0.00    +0.316 C 
ATOM      7  C   UNL     1     -15.002   0.226  -5.476  0.00  0.00    +0.018 A 
ATOM      8  C   UNL     1     -13.989   0.522  -4.459  0.00  0.00    +0.009 A 
ATOM      9  C   UNL     1     -14.067   1.671  -3.761  0.00  0.00    +0.000 A 
ATOM     10  C   UNL     1     -15.161   2.613  -3.961  0.00  0.00    +0.000 A 
ENDROOT
BRANCH   6  11
ATOM     11  O   UNL     1     -14.442  -2.091  -5.839  0.00  0.00    -0.361 OA
ATOM     12  H   UNL     1     -13.987  -2.380  -6.644  0.00  0.00    +0.213 HD
ENDBRANCH   6  11
BRANCH   3  13
ATOM     13  O   UNL     1     -17.116   2.312  -7.735  0.00  0.00    -0.342 OA
BRANCH  13  14
ATOM     14  C   UNL     1     -17.088   2.333  -9.336  0.00  0.00    +0.119 C 
ATOM     15  C   UNL     1     -18.209   3.377  -9.801  0.00  0.00    +0.038 C 
BRANCH  14  16
ATOM     16  C   UNL     1     -15.985   3.338  -9.493  0.00  0.00    +0.031 C 
BRANCH  16  17
ATOM     17  C   UNL     1     -16.523   3.900 -10.910  0.00  0.00    +0.002 C 
BRANCH  17  18
ATOM     18  C   UNL     1     -15.427   4.542 -11.772  0.00  0.00    +0.000 C 
BRANCH  18  19
ATOM     19  C   UNL     1     -15.629   4.225 -13.257  0.00  0.00    -0.000 C 
BRANCH  19  20
ATOM     20  C   UNL     1     -16.639   3.096 -13.456  0.00  0.00    -0.003 C 
ATOM     21  C   UNL     1     -16.320   2.276 -14.696  0.00  0.00    +0.004 C 
ENDBRANCH  19  20
ENDBRANCH  18  19
ENDBRANCH  17  18
ENDBRANCH  16  17
ENDBRANCH  14  16
ENDBRANCH  13  14
ENDBRANCH   3  13
TORSDOF 8
ENDMDL
MODEL 6
REMARK VINA RESULT:      -5.2      1.420      2.274
REMARK  Name = min_compound977.pdb
REMARK  10 active torsions:
REMARK  status: ('A' for Active; 'I' for Inactive)
REMARK    1  A    between atoms: _7  and  _9
REMARK    2  A    between atoms: _9  and  _10
REMARK    3  A    between atoms: _10  and  _11
REMARK    4  A    between atoms: _10  and  _12
REMARK    5  A    between atoms: _12  and  _13
REMARK    6  A    between atoms: _13  and  _14
REMARK    7  A    between atoms: _14  and  _15
REMARK    8  A    between atoms: _15  and  _16
REMARK    9  A    between atoms: _16  and  _17
REMARK   10  A    between atoms: _18  and  _20
REMARK                            x       y       z     vdW  Elec       q    Type
REMARK                         _______ _______ _______ _____ _____    ______ ____
ROOT
ATOM      1  C   UNL     1     -15.690   2.078  -4.056  0.00  0.00    +0.009 A 
ATOM      2  C   UNL     1     -15.738   0.630  -3.837  0.00  0.00    +0.019 A 
ATOM      3  C   UNL     1     -16.684  -0.201  -4.337  0.00  0.00    +0.319 C 
ATOM      4  O   UNL     1     -16.565  -1.575  -4.109  0.00  0.00    -0.195 OA
ATOM      5  O   UNL     1     -16.097  -1.783  -2.726  0.00  0.00    -0.195 OA
ATOM      6  C   UNL     1     -14.825  -1.222  -2.606  0.00  0.00    +0.316 C 
ATOM      7  C   UNL     1     -14.607   0.009  -3.117  0.00  0.00    +0.018 A 
ATOM      8  C   UNL     1     -13.345   0.752  -3.068  0.00  0.00    +0.009 A 
ATOM      9  C   UNL     1     -13.322   2.044  -3.450  0.00  0.00    +0.000 A 
ATOM     10  C   UNL     1     -14.532   2.737  -3.872  0.00  0.00    +0.000 A 
ENDROOT
BRANCH   6  11
ATOM     11  O   UNL     1     -13.905  -1.924  -1.858  0.00  0.00    -0.361 OA
ATOM     12  H   UNL     1     -14.222  -2.834  -1.751  0.00  0.00    +0.213 HD
ENDBRANCH   6  11
BRANCH   3  13
ATOM     13  O   UNL     1     -17.664   0.197  -5.250  0.00  0.00    -0.342 OA
BRANCH  13  14
ATOM     14  C   UNL     1     -17.924  -0.780  -6.491  0.00  0.00    +0.119 C 
ATOM     15  C   UNL     1     -18.825   0.034  -7.535  0.00  0.00    +0.038 C 
BRANCH  14  16
ATOM     16  C   UNL     1     -16.659  -0.478  -7.238  0.00  0.00    +0.031 C 
BRANCH  16  17
ATOM     17  C   UNL     1     -17.115   1.013  -7.666  0.00  0.00    +0.002 C 
BRANCH  17  18
ATOM     18  C   UNL     1     -15.939   1.968  -7.913  0.00  0.00    +0.000 C 
BRANCH  18  19
ATOM     19  C   UNL     1     -16.313   3.066  -8.913  0.00  0.00    -0.000 C 
BRANCH  19  20
ATOM     20  C   UNL     1     -17.284   2.550  -9.974  0.00  0.00    -0.003 C 
ATOM     21  C   UNL     1     -17.017   3.186 -11.329  0.00  0.00    +0.004 C 
ENDBRANCH  19  20
ENDBRANCH  18  19
ENDBRANCH  17  18
ENDBRANCH  16  17
ENDBRANCH  14  16
ENDBRANCH  13  14
ENDBRANCH   3  13
TORSDOF 8
ENDMDL
MODEL 7
REMARK VINA RESULT:      -5.1     12.674     14.607
REMARK  Name = min_compound977.pdb
REMARK  10 active torsions:
REMARK  status: ('A' for Active; 'I' for Inactive)
REMARK    1  A    between atoms: _7  and  _9
REMARK    2  A    between atoms: _9  and  _10
REMARK    3  A    between atoms: _10  and  _11
REMARK    4  A    between atoms: _10  and  _12
REMARK    5  A    between atoms: _12  and  _13
REMARK    6  A    between atoms: _13  and  _14
REMARK    7  A    between atoms: _14  and  _15
REMARK    8  A    between atoms: _15  and  _16
REMARK    9  A    between atoms: _16  and  _17
REMARK   10  A    between atoms: _18  and  _20
REMARK                            x       y       z     vdW  Elec       q    Type
REMARK                         _______ _______ _______ _____ _____    ______ ____
ROOT
ATOM      1  C   UNL     1     -11.687   0.650 -17.985  0.00  0.00    +0.009 A 
ATOM      2  C   UNL     1     -11.799   1.990 -17.404  0.00  0.00    +0.019 A 
ATOM      3  C   UNL     1     -12.749   2.901 -17.726  0.00  0.00    +0.319 C 
ATOM      4  O   UNL     1     -12.781   4.117 -17.036  0.00  0.00    -0.195 OA
ATOM      5  O   UNL     1     -11.394   4.580 -16.836  0.00  0.00    -0.195 OA
ATOM      6  C   UNL     1     -10.737   3.651 -16.028  0.00  0.00    +0.316 C 
ATOM      7  C   UNL     1     -10.881   2.336 -16.299  0.00  0.00    +0.018 A 
ATOM      8  C   UNL     1     -10.255   1.231 -15.567  0.00  0.00    +0.009 A 
ATOM      9  C   UNL     1     -10.333  -0.019 -16.063  0.00  0.00    +0.000 A 
ATOM     10  C   UNL     1     -10.990  -0.298 -17.334  0.00  0.00    +0.000 A 
ENDROOT
BRANCH   6  11
ATOM     11  O   UNL     1      -9.882   4.156 -15.072  0.00  0.00    -0.361 OA
ATOM     12  H   UNL     1      -9.708   5.088 -15.272  0.00  0.00    +0.213 HD
ENDBRANCH   6  11
BRANCH   3  13
ATOM     13  O   UNL     1     -13.838   2.627 -18.556  0.00  0.00    -0.342 OA
BRANCH  13  14
ATOM     14  C   UNL     1     -13.723   3.126 -20.073  0.00  0.00    +0.119 C 
ATOM     15  C   UNL     1     -13.957   1.840 -20.999  0.00  0.00    +0.038 C 
BRANCH  14  16
ATOM     16  C   UNL     1     -15.143   3.585 -20.229  0.00  0.00    +0.031 C 
BRANCH  16  17
ATOM     17  C   UNL     1     -14.750   4.979 -20.947  0.00  0.00    +0.002 C 
BRANCH  17  18
ATOM     18  C   UNL     1     -13.791   5.847 -20.118  0.00  0.00    +0.000 C 
BRANCH  18  19
ATOM     19  C   UNL     1     -12.814   6.610 -21.017  0.00  0.00    -0.000 C 
BRANCH  19  20
ATOM     20  C   UNL     1     -11.568   7.047 -20.246  0.00  0.00    -0.003 C 
ATOM     21  C   UNL     1     -11.876   7.270 -18.774  0.00  0.00    +0.004 C 
ENDBRANCH  19  20
ENDBRANCH  18  19
ENDBRANCH  17  18
ENDBRANCH  16  17
ENDBRANCH  14  16
ENDBRANCH  13  14
ENDBRANCH   3  13
TORSDOF 8
ENDMDL
MODEL 8
REMARK VINA RESULT:      -5.1      1.309      2.216
REMARK  Name = min_compound977.pdb
REMARK  10 active torsions:
REMARK  status: ('A' for Active; 'I' for Inactive)
REMARK    1  A    between atoms: _7  and  _9
REMARK    2  A    between atoms: _9  and  _10
REMARK    3  A    between atoms: _10  and  _11
REMARK    4  A    between atoms: _10  and  _12
REMARK    5  A    between atoms: _12  and  _13
REMARK    6  A    between atoms: _13  and  _14
REMARK    7  A    between atoms: _14  and  _15
REMARK    8  A    between atoms: _15  and  _16
REMARK    9  A    between atoms: _16  and  _17
REMARK   10  A    between atoms: _18  and  _20
REMARK                            x       y       z     vdW  Elec       q    Type
REMARK                         _______ _______ _______ _____ _____    ______ ____
ROOT
ATOM      1  C   UNL     1     -14.609   2.842  -3.839  0.00  0.00    +0.009 A 
ATOM      2  C   UNL     1     -15.817   2.018  -3.911  0.00  0.00    +0.019 A 
ATOM      3  C   UNL     1     -16.958   2.364  -4.558  0.00  0.00    +0.319 C 
ATOM      4  O   UNL     1     -18.011   1.446  -4.607  0.00  0.00    -0.195 OA
ATOM      5  O   UNL     1     -18.114   0.778  -3.296  0.00  0.00    -0.195 OA
ATOM      6  C   UNL     1     -16.937   0.061  -3.077  0.00  0.00    +0.316 C 
ATOM      7  C   UNL     1     -15.754   0.658  -3.337  0.00  0.00    +0.018 A 
ATOM      8  C   UNL     1     -14.428   0.062  -3.153  0.00  0.00    +0.009 A 
ATOM      9  C   UNL     1     -13.332   0.837  -3.272  0.00  0.00    +0.000 A 
ATOM     10  C   UNL     1     -13.431   2.266  -3.538  0.00  0.00    +0.000 A 
ENDROOT
BRANCH   6  11
ATOM     11  O   UNL     1     -17.066  -1.180  -2.491  0.00  0.00    -0.361 OA
ATOM     12  H   UNL     1     -17.130  -1.064  -1.531  0.00  0.00    +0.213 HD
ENDBRANCH   6  11
BRANCH   3  13
ATOM     13  O   UNL     1     -17.079   3.497  -5.365  0.00  0.00    -0.342 OA
BRANCH  13  14
ATOM     14  C   UNL     1     -18.204   3.446  -6.503  0.00  0.00    +0.119 C 
ATOM     15  C   UNL     1     -18.439   4.956  -6.984  0.00  0.00    +0.038 C 
BRANCH  14  16
ATOM     16  C   UNL     1     -17.294   3.145  -7.656  0.00  0.00    +0.031 C 
BRANCH  16  17
ATOM     17  C   UNL     1     -18.142   1.864  -8.159  0.00  0.00    +0.002 C 
BRANCH  17  18
ATOM     18  C   UNL     1     -17.341   0.554  -8.144  0.00  0.00    +0.000 C 
BRANCH  18  19
ATOM     19  C   UNL     1     -15.909   0.783  -7.651  0.00  0.00    -0.000 C 
BRANCH  19  20
ATOM     20  C   UNL     1     -15.405  -0.400  -6.824  0.00  0.00    -0.003 C 
ATOM     21  C   UNL     1     -13.905  -0.316  -6.591  0.00  0.00    +0.004 C 
ENDBRANCH  19  20
ENDBRANCH  18  19
ENDBRANCH  17  18
ENDBRANCH  16  17
ENDBRANCH  14  16
ENDBRANCH  13  14
ENDBRANCH   3  13
TORSDOF 8
ENDMDL
MODEL 9
REMARK VINA RESULT:      -5.1      5.251      8.297
REMARK  Name = min_compound977.pdb
REMARK  10 active torsions:
REMARK  status: ('A' for Active; 'I' for Inactive)
REMARK    1  A    between atoms: _7  and  _9
REMARK    2  A    between atoms: _9  and  _10
REMARK    3  A    between atoms: _10  and  _11
REMARK    4  A    between atoms: _10  and  _12
REMARK    5  A    between atoms: _12  and  _13
REMARK    6  A    between atoms: _13  and  _14
REMARK    7  A    between atoms: _14  and  _15
REMARK    8  A    between atoms: _15  and  _16
REMARK    9  A    between atoms: _16  and  _17
REMARK   10  A    between atoms: _18  and  _20
REMARK                            x       y       z     vdW  Elec       q    Type
REMARK                         _______ _______ _______ _____ _____    ______ ____
ROOT
ATOM      1  C   UNL     1     -16.803   2.758 -12.368  0.00  0.00    +0.009 A 
ATOM      2  C   UNL     1     -16.611   4.041 -11.689  0.00  0.00    +0.019 A 
ATOM      3  C   UNL     1     -16.177   4.190 -10.413  0.00  0.00    +0.319 C 
ATOM      4  O   UNL     1     -15.969   5.480  -9.917  0.00  0.00    -0.195 OA
ATOM      5  O   UNL     1     -17.056   6.352 -10.402  0.00  0.00    -0.195 OA
ATOM      6  C   UNL     1     -16.977   6.415 -11.794  0.00  0.00    +0.316 C 
ATOM      7  C   UNL     1     -16.791   5.272 -12.487  0.00  0.00    +0.018 A 
ATOM      8  C   UNL     1     -16.699   5.153 -13.945  0.00  0.00    +0.009 A 
ATOM      9  C   UNL     1     -16.703   3.929 -14.511  0.00  0.00    +0.000 A 
ATOM     10  C   UNL     1     -16.840   2.719 -13.712  0.00  0.00    +0.000 A 
ENDROOT
BRANCH   6  11
ATOM     11  O   UNL     1     -17.216   7.642 -12.374  0.00  0.00    -0.361 OA
ATOM     12  H   UNL     1     -16.514   7.824 -13.017  0.00  0.00    +0.213 HD
ENDBRANCH   6  11
BRANCH   3  13
ATOM     13  O   UNL     1     -15.717   3.135  -9.622  0.00  0.00    -0.342 OA
BRANCH  13  14
ATOM     14  C   UNL     1     -16.579   2.792  -8.317  0.00  0.00    +0.119 C 
ATOM     15  C   UNL     1     -18.094   2.610  -8.803  0.00  0.00    +0.038 C 
BRANCH  14  16
ATOM     16  C   UNL     1     -16.329   1.313  -8.309  0.00  0.00    +0.031 C 
BRANCH  16  17
ATOM     17  C   UNL     1     -15.132   1.391  -7.224  0.00  0.00    +0.002 C 
BRANCH  17  18
ATOM     18  C   UNL     1     -14.606   0.015  -6.791  0.00  0.00    +0.000 C 
BRANCH  18  19
ATOM     19  C   UNL     1     -13.729   0.123  -5.540  0.00  0.00    -0.000 C 
BRANCH  19  20
ATOM     20  C   UNL     1     -14.105   1.341  -4.696  0.00  0.00    -0.003 C 
ATOM     21  C   UNL     1     -13.382   1.335  -3.359  0.00  0.00    +0.004 C 
ENDBRANCH  19  20
ENDBRANCH  18  19
ENDBRANCH  17  18
ENDBRANCH  16  17
ENDBRANCH  14  16
ENDBRANCH  13  14
ENDBRANCH   3  13
TORSDOF 8
ENDMDL
