MODEL 1
REMARK VINA RESULT:      -7.8      0.000      0.000
REMARK  Name = min_compound995.pdb
REMARK  5 active torsions:
REMARK  status: ('A' for Active; 'I' for Inactive)
REMARK    1  A    between atoms: _6  and  _24
REMARK    2  A    between atoms: _8  and  _9
REMARK    3  A    between atoms: _12  and  _25
REMARK    4  A    between atoms: _15  and  _22
REMARK    5  A    between atoms: _19  and  _23
REMARK                            x       y       z     vdW  Elec       q    Type
REMARK                         _______ _______ _______ _____ _____    ______ ____
ROOT
ATOM      1  O   UNL     1     -14.747   4.506 -15.435  0.00  0.00    -0.483 OA
ATOM      2  C   UNL     1     -13.968   3.777 -16.301  0.00  0.00    +0.231 C 
ATOM      3  C   UNL     1     -13.782   2.442 -15.909  0.00  0.00    +0.071 C 
ATOM      4  C   UNL     1     -13.129   1.569 -16.757  0.00  0.00    +0.158 C 
ATOM      5  C   UNL     1     -12.693   2.003 -17.999  0.00  0.00    +0.158 C 
ATOM      6  C   UNL     1     -12.877   3.329 -18.391  0.00  0.00    +0.057 C 
ATOM      7  C   UNL     1     -13.461   4.271 -17.517  0.00  0.00    +0.009 C 
ATOM      8  C   UNL     1     -13.733   5.720 -17.849  0.00  0.00    +0.003 C 
ATOM      9  C   UNL     1     -14.465   6.517 -16.804  0.00  0.00    +0.025 C 
ATOM     10  C   UNL     1     -14.568   7.912 -16.785  0.00  0.00    +0.060 C 
ATOM     11  C   UNL     1     -15.261   8.551 -15.755  0.00  0.00    +0.160 C 
ATOM     12  C   UNL     1     -15.858   7.901 -14.662  0.00  0.00    +0.204 C 
ATOM     13  C   UNL     1     -15.655   6.517 -14.658  0.00  0.00    +0.157 C 
ATOM     14  O   UNL     1     -16.493   8.534 -13.750  0.00  0.00    -0.288 OA
ATOM     15  C   UNL     1     -14.954   5.842 -15.680  0.00  0.00    +0.114 C 
ENDROOT
BRANCH   8  16
ATOM     16  C   UNL     1     -13.323   6.280 -19.028  0.00  0.00    +0.025 A 
ATOM     17  C   UNL     1     -14.164   6.135 -20.244  0.00  0.00    +0.012 A 
ATOM     18  C   UNL     1     -13.682   6.510 -21.561  0.00  0.00    +0.001 A 
ATOM     19  C   UNL     1     -12.454   7.036 -21.682  0.00  0.00    +0.004 A 
ATOM     20  C   UNL     1     -11.637   7.301 -20.514  0.00  0.00    +0.046 A 
ATOM     21  C   UNL     1     -12.017   6.956 -19.270  0.00  0.00    +0.125 A 
BRANCH  21  22
ATOM     22  O   UNL     1     -11.273   7.429 -18.206  0.00  0.00    -0.506 OA
ATOM     23  H   UNL     1     -10.813   6.688 -17.775  0.00  0.00    +0.292 HD
ENDBRANCH  21  22
ENDBRANCH   8  16
BRANCH   4  24
ATOM     24  O   UNL     1     -12.951   0.268 -16.385  0.00  0.00    -0.503 OA
ATOM     25  H   UNL     1     -13.052   0.278 -15.414  0.00  0.00    +0.292 HD
ENDBRANCH   4  24
BRANCH   5  26
ATOM     26  O   UNL     1     -12.102   1.084 -18.824  0.00  0.00    -0.503 OA
ATOM     27  H   UNL     1     -12.515   0.221 -18.652  0.00  0.00    +0.292 HD
ENDBRANCH   5  26
BRANCH  11  28
ATOM     28  O   UNL     1     -15.378   9.923 -15.784  0.00  0.00    -0.503 OA
ATOM     29  H   UNL     1     -15.195  10.056 -16.748  0.00  0.00    +0.292 HD
ENDBRANCH  11  28
TORSDOF 5
ENDMDL
MODEL 2
REMARK VINA RESULT:      -7.6      0.256      5.316
REMARK  Name = min_compound995.pdb
REMARK  5 active torsions:
REMARK  status: ('A' for Active; 'I' for Inactive)
REMARK    1  A    between atoms: _6  and  _24
REMARK    2  A    between atoms: _8  and  _9
REMARK    3  A    between atoms: _12  and  _25
REMARK    4  A    between atoms: _15  and  _22
REMARK    5  A    between atoms: _19  and  _23
REMARK                            x       y       z     vdW  Elec       q    Type
REMARK                         _______ _______ _______ _____ _____    ______ ____
ROOT
ATOM      1  O   UNL     1     -14.472   4.763 -15.409  0.00  0.00    -0.483 OA
ATOM      2  C   UNL     1     -14.839   6.042 -15.754  0.00  0.00    +0.231 C 
ATOM      3  C   UNL     1     -15.552   6.716 -14.751  0.00  0.00    +0.071 C 
ATOM      4  C   UNL     1     -15.866   8.050 -14.920  0.00  0.00    +0.158 C 
ATOM      5  C   UNL     1     -15.446   8.723 -16.057  0.00  0.00    +0.158 C 
ATOM      6  C   UNL     1     -14.737   8.055 -17.055  0.00  0.00    +0.057 C 
ATOM      7  C   UNL     1     -14.475   6.672 -16.958  0.00  0.00    +0.009 C 
ATOM      8  C   UNL     1     -13.693   5.858 -17.963  0.00  0.00    +0.003 C 
ATOM      9  C   UNL     1     -13.440   4.419 -17.603  0.00  0.00    +0.025 C 
ATOM     10  C   UNL     1     -12.993   3.436 -18.493  0.00  0.00    +0.060 C 
ATOM     11  C   UNL     1     -12.806   2.124 -18.053  0.00  0.00    +0.160 C 
ATOM     12  C   UNL     1     -13.075   1.665 -16.753  0.00  0.00    +0.204 C 
ATOM     13  C   UNL     1     -13.611   2.648 -15.914  0.00  0.00    +0.157 C 
ATOM     14  O   UNL     1     -12.873   0.453 -16.398  0.00  0.00    -0.288 OA
ATOM     15  C   UNL     1     -13.818   3.980 -16.330  0.00  0.00    +0.114 C 
ENDROOT
BRANCH   8  16
ATOM     16  C   UNL     1     -13.252   6.396 -19.142  0.00  0.00    +0.025 A 
ATOM     17  C   UNL     1     -14.079   6.257 -20.368  0.00  0.00    +0.012 A 
ATOM     18  C   UNL     1     -13.568   6.607 -21.681  0.00  0.00    +0.001 A 
ATOM     19  C   UNL     1     -12.327   7.104 -21.790  0.00  0.00    +0.004 A 
ATOM     20  C   UNL     1     -11.522   7.363 -20.612  0.00  0.00    +0.046 A 
ATOM     21  C   UNL     1     -11.928   7.040 -19.371  0.00  0.00    +0.125 A 
BRANCH  21  22
ATOM     22  O   UNL     1     -11.190   7.507 -18.300  0.00  0.00    -0.506 OA
ATOM     23  H   UNL     1     -10.267   7.213 -18.388  0.00  0.00    +0.292 HD
ENDBRANCH  21  22
ENDBRANCH   8  16
BRANCH   4  24
ATOM     24  O   UNL     1     -16.553   8.715 -13.947  0.00  0.00    -0.503 OA
ATOM     25  H   UNL     1     -17.381   8.207 -13.847  0.00  0.00    +0.292 HD
ENDBRANCH   4  24
BRANCH   5  26
ATOM     26  O   UNL     1     -15.734  10.058 -16.150  0.00  0.00    -0.503 OA
ATOM     27  H   UNL     1     -16.603  10.205 -15.739  0.00  0.00    +0.292 HD
ENDBRANCH   5  26
BRANCH  11  28
ATOM     28  O   UNL     1     -12.330   1.187 -18.943  0.00  0.00    -0.503 OA
ATOM     29  H   UNL     1     -11.364   1.372 -18.834  0.00  0.00    +0.292 HD
ENDBRANCH  11  28
TORSDOF 5
ENDMDL
MODEL 3
REMARK VINA RESULT:      -7.6      2.923      5.049
REMARK  Name = min_compound995.pdb
REMARK  5 active torsions:
REMARK  status: ('A' for Active; 'I' for Inactive)
REMARK    1  A    between atoms: _6  and  _24
REMARK    2  A    between atoms: _8  and  _9
REMARK    3  A    between atoms: _12  and  _25
REMARK    4  A    between atoms: _15  and  _22
REMARK    5  A    between atoms: _19  and  _23
REMARK                            x       y       z     vdW  Elec       q    Type
REMARK                         _______ _______ _______ _____ _____    ______ ____
ROOT
ATOM      1  O   UNL     1     -15.286   4.372 -18.524  0.00  0.00    -0.483 OA
ATOM      2  C   UNL     1     -14.738   3.445 -19.377  0.00  0.00    +0.231 C 
ATOM      3  C   UNL     1     -15.228   3.523 -20.689  0.00  0.00    +0.071 C 
ATOM      4  C   UNL     1     -14.665   2.735 -21.674  0.00  0.00    +0.158 C 
ATOM      5  C   UNL     1     -13.600   1.901 -21.370  0.00  0.00    +0.158 C 
ATOM      6  C   UNL     1     -13.110   1.822 -20.066  0.00  0.00    +0.057 C 
ATOM      7  C   UNL     1     -13.717   2.545 -19.018  0.00  0.00    +0.009 C 
ATOM      8  C   UNL     1     -13.252   2.555 -17.580  0.00  0.00    +0.003 C 
ATOM      9  C   UNL     1     -13.982   3.486 -16.650  0.00  0.00    +0.025 C 
ATOM     10  C   UNL     1     -13.904   3.447 -15.253  0.00  0.00    +0.060 C 
ATOM     11  C   UNL     1     -14.639   4.353 -14.485  0.00  0.00    +0.160 C 
ATOM     12  C   UNL     1     -15.523   5.316 -15.000  0.00  0.00    +0.204 C 
ATOM     13  C   UNL     1     -15.652   5.265 -16.393  0.00  0.00    +0.157 C 
ATOM     14  O   UNL     1     -16.163   6.131 -14.251  0.00  0.00    -0.288 OA
ATOM     15  C   UNL     1     -14.928   4.358 -17.197  0.00  0.00    +0.114 C 
ENDROOT
BRANCH   8  16
ATOM     16  C   UNL     1     -12.233   1.752 -17.145  0.00  0.00    +0.025 A 
ATOM     17  C   UNL     1     -12.482   0.305 -16.921  0.00  0.00    +0.012 A 
ATOM     18  C   UNL     1     -11.513  -0.547 -16.255  0.00  0.00    +0.001 A 
ATOM     19  C   UNL     1     -10.343  -0.022 -15.860  0.00  0.00    +0.004 A 
ATOM     20  C   UNL     1     -10.007   1.357 -16.156  0.00  0.00    +0.046 A 
ATOM     21  C   UNL     1     -10.869   2.203 -16.748  0.00  0.00    +0.125 A 
BRANCH  21  22
ATOM     22  O   UNL     1     -10.394   3.429 -17.172  0.00  0.00    -0.506 OA
ATOM     23  H   UNL     1      -9.443   3.362 -17.364  0.00  0.00    +0.292 HD
ENDBRANCH  21  22
ENDBRANCH   8  16
BRANCH   4  24
ATOM     24  O   UNL     1     -15.132   2.811 -22.953  0.00  0.00    -0.503 OA
ATOM     25  H   UNL     1     -14.429   2.398 -23.492  0.00  0.00    +0.292 HD
ENDBRANCH   4  24
BRANCH   5  26
ATOM     26  O   UNL     1     -13.041   1.184 -22.394  0.00  0.00    -0.503 OA
ATOM     27  H   UNL     1     -12.371   0.592 -22.012  0.00  0.00    +0.292 HD
ENDBRANCH   5  26
BRANCH  11  28
ATOM     28  O   UNL     1     -14.514   4.315 -13.114  0.00  0.00    -0.503 OA
ATOM     29  H   UNL     1     -13.533   4.189 -13.069  0.00  0.00    +0.292 HD
ENDBRANCH  11  28
TORSDOF 5
ENDMDL
MODEL 4
REMARK VINA RESULT:      -7.6      2.495      7.143
REMARK  Name = min_compound995.pdb
REMARK  5 active torsions:
REMARK  status: ('A' for Active; 'I' for Inactive)
REMARK    1  A    between atoms: _6  and  _24
REMARK    2  A    between atoms: _8  and  _9
REMARK    3  A    between atoms: _12  and  _25
REMARK    4  A    between atoms: _15  and  _22
REMARK    5  A    between atoms: _19  and  _23
REMARK                            x       y       z     vdW  Elec       q    Type
REMARK                         _______ _______ _______ _____ _____    ______ ____
ROOT
ATOM      1  O   UNL     1     -13.210   6.382 -17.537  0.00  0.00    -0.483 OA
ATOM      2  C   UNL     1     -14.321   7.019 -17.039  0.00  0.00    +0.231 C 
ATOM      3  C   UNL     1     -14.558   8.277 -17.615  0.00  0.00    +0.071 C 
ATOM      4  C   UNL     1     -15.713   8.963 -17.298  0.00  0.00    +0.158 C 
ATOM      5  C   UNL     1     -16.646   8.395 -16.444  0.00  0.00    +0.158 C 
ATOM      6  C   UNL     1     -16.413   7.144 -15.872  0.00  0.00    +0.057 C 
ATOM      7  C   UNL     1     -15.206   6.453 -16.102  0.00  0.00    +0.009 C 
ATOM      8  C   UNL     1     -14.863   5.085 -15.558  0.00  0.00    +0.003 C 
ATOM      9  C   UNL     1     -13.562   4.490 -16.023  0.00  0.00    +0.025 C 
ATOM     10  C   UNL     1     -12.931   3.386 -15.438  0.00  0.00    +0.060 C 
ATOM     11  C   UNL     1     -11.714   2.924 -15.943  0.00  0.00    +0.160 C 
ATOM     12  C   UNL     1     -11.007   3.514 -17.005  0.00  0.00    +0.204 C 
ATOM     13  C   UNL     1     -11.615   4.671 -17.504  0.00  0.00    +0.157 C 
ATOM     14  O   UNL     1      -9.900   3.043 -17.437  0.00  0.00    -0.288 OA
ATOM     15  C   UNL     1     -12.841   5.167 -17.011  0.00  0.00    +0.114 C 
ENDROOT
BRANCH   8  16
ATOM     16  C   UNL     1     -15.684   4.432 -14.679  0.00  0.00    +0.025 A 
ATOM     17  C   UNL     1     -15.616   4.754 -13.231  0.00  0.00    +0.012 A 
ATOM     18  C   UNL     1     -16.294   3.946 -12.233  0.00  0.00    +0.001 A 
ATOM     19  C   UNL     1     -17.034   2.900 -12.630  0.00  0.00    +0.004 A 
ATOM     20  C   UNL     1     -17.222   2.612 -14.038  0.00  0.00    +0.046 A 
ATOM     21  C   UNL     1     -16.604   3.307 -15.010  0.00  0.00    +0.125 A 
BRANCH  21  22
ATOM     22  O   UNL     1     -17.000   3.097 -16.317  0.00  0.00    -0.506 OA
ATOM     23  H   UNL     1     -17.324   3.931 -16.697  0.00  0.00    +0.292 HD
ENDBRANCH  21  22
ENDBRANCH   8  16
BRANCH   4  24
ATOM     24  O   UNL     1     -15.953  10.184 -17.859  0.00  0.00    -0.503 OA
ATOM     25  H   UNL     1     -16.922  10.291 -17.798  0.00  0.00    +0.292 HD
ENDBRANCH   4  24
BRANCH   5  26
ATOM     26  O   UNL     1     -17.800   9.092 -16.207  0.00  0.00    -0.503 OA
ATOM     27  H   UNL     1     -17.883   9.213 -15.246  0.00  0.00    +0.292 HD
ENDBRANCH   5  26
BRANCH  11  28
ATOM     28  O   UNL     1     -11.136   1.813 -15.371  0.00  0.00    -0.503 OA
ATOM     29  H   UNL     1     -11.364   2.010 -14.428  0.00  0.00    +0.292 HD
ENDBRANCH  11  28
TORSDOF 5
ENDMDL
MODEL 5
REMARK VINA RESULT:      -7.5      3.076      6.556
REMARK  Name = min_compound995.pdb
REMARK  5 active torsions:
REMARK  status: ('A' for Active; 'I' for Inactive)
REMARK    1  A    between atoms: _6  and  _24
REMARK    2  A    between atoms: _8  and  _9
REMARK    3  A    between atoms: _12  and  _25
REMARK    4  A    between atoms: _15  and  _22
REMARK    5  A    between atoms: _19  and  _23
REMARK                            x       y       z     vdW  Elec       q    Type
REMARK                         _______ _______ _______ _____ _____    ______ ____
ROOT
ATOM      1  O   UNL     1     -15.575   3.996 -18.592  0.00  0.00    -0.483 OA
ATOM      2  C   UNL     1     -15.148   4.098 -17.289  0.00  0.00    +0.231 C 
ATOM      3  C   UNL     1     -15.945   4.937 -16.496  0.00  0.00    +0.071 C 
ATOM      4  C   UNL     1     -15.701   5.023 -15.139  0.00  0.00    +0.158 C 
ATOM      5  C   UNL     1     -14.699   4.258 -14.564  0.00  0.00    +0.158 C 
ATOM      6  C   UNL     1     -13.905   3.423 -15.351  0.00  0.00    +0.057 C 
ATOM      7  C   UNL     1     -14.067   3.376 -16.752  0.00  0.00    +0.009 C 
ATOM      8  C   UNL     1     -13.284   2.488 -17.693  0.00  0.00    +0.003 C 
ATOM      9  C   UNL     1     -13.699   2.520 -19.138  0.00  0.00    +0.025 C 
ATOM     10  C   UNL     1     -12.946   2.006 -20.200  0.00  0.00    +0.060 C 
ATOM     11  C   UNL     1     -13.422   2.103 -21.509  0.00  0.00    +0.160 C 
ATOM     12  C   UNL     1     -14.619   2.735 -21.886  0.00  0.00    +0.204 C 
ATOM     13  C   UNL     1     -15.300   3.324 -20.815  0.00  0.00    +0.157 C 
ATOM     14  O   UNL     1     -15.015   2.785 -23.101  0.00  0.00    -0.288 OA
ATOM     15  C   UNL     1     -14.843   3.248 -19.482  0.00  0.00    +0.114 C 
ENDROOT
BRANCH   8  16
ATOM     16  C   UNL     1     -12.246   1.711 -17.256  0.00  0.00    +0.025 A 
ATOM     17  C   UNL     1     -12.457   0.257 -17.038  0.00  0.00    +0.012 A 
ATOM     18  C   UNL     1     -11.469  -0.571 -16.370  0.00  0.00    +0.001 A 
ATOM     19  C   UNL     1     -10.315  -0.017 -15.968  0.00  0.00    +0.004 A 
ATOM     20  C   UNL     1     -10.016   1.372 -16.256  0.00  0.00    +0.046 A 
ATOM     21  C   UNL     1     -10.897   2.196 -16.850  0.00  0.00    +0.125 A 
BRANCH  21  22
ATOM     22  O   UNL     1     -10.453   3.437 -17.267  0.00  0.00    -0.506 OA
ATOM     23  H   UNL     1      -9.920   3.337 -18.075  0.00  0.00    +0.292 HD
ENDBRANCH  21  22
ENDBRANCH   8  16
BRANCH   4  24
ATOM     24  O   UNL     1     -16.477   5.832 -14.360  0.00  0.00    -0.503 OA
ATOM     25  H   UNL     1     -15.887   6.104 -13.632  0.00  0.00    +0.292 HD
ENDBRANCH   4  24
BRANCH   5  26
ATOM     26  O   UNL     1     -14.535   4.338 -13.208  0.00  0.00    -0.503 OA
ATOM     27  H   UNL     1     -15.419   4.347 -12.801  0.00  0.00    +0.292 HD
ENDBRANCH   5  26
BRANCH  11  28
ATOM     28  O   UNL     1     -12.677   1.554 -22.529  0.00  0.00    -0.503 OA
ATOM     29  H   UNL     1     -12.378   2.399 -22.950  0.00  0.00    +0.292 HD
ENDBRANCH  11  28
TORSDOF 5
ENDMDL
MODEL 6
REMARK VINA RESULT:      -7.3     14.153     17.061
REMARK  Name = min_compound995.pdb
REMARK  5 active torsions:
REMARK  status: ('A' for Active; 'I' for Inactive)
REMARK    1  A    between atoms: _6  and  _24
REMARK    2  A    between atoms: _8  and  _9
REMARK    3  A    between atoms: _12  and  _25
REMARK    4  A    between atoms: _15  and  _22
REMARK    5  A    between atoms: _19  and  _23
REMARK                            x       y       z     vdW  Elec       q    Type
REMARK                         _______ _______ _______ _____ _____    ______ ____
ROOT
ATOM      1  O   UNL     1     -17.540  -3.569  -1.805  0.00  0.00    -0.483 OA
ATOM      2  C   UNL     1     -18.074  -2.796  -2.808  0.00  0.00    +0.231 C 
ATOM      3  C   UNL     1     -19.454  -2.975  -2.987  0.00  0.00    +0.071 C 
ATOM      4  C   UNL     1     -20.136  -2.165  -3.873  0.00  0.00    +0.158 C 
ATOM      5  C   UNL     1     -19.465  -1.160  -4.552  0.00  0.00    +0.158 C 
ATOM      6  C   UNL     1     -18.093  -0.979  -4.375  0.00  0.00    +0.057 C 
ATOM      7  C   UNL     1     -17.347  -1.844  -3.546  0.00  0.00    +0.009 C 
ATOM      8  C   UNL     1     -15.868  -1.722  -3.263  0.00  0.00    +0.003 C 
ATOM      9  C   UNL     1     -15.300  -2.689  -2.260  0.00  0.00    +0.025 C 
ATOM     10  C   UNL     1     -13.936  -2.932  -2.064  0.00  0.00    +0.060 C 
ATOM     11  C   UNL     1     -13.519  -3.865  -1.112  0.00  0.00    +0.160 C 
ATOM     12  C   UNL     1     -14.377  -4.651  -0.325  0.00  0.00    +0.204 C 
ATOM     13  C   UNL     1     -15.733  -4.455  -0.613  0.00  0.00    +0.157 C 
ATOM     14  O   UNL     1     -13.943  -5.484   0.542  0.00  0.00    -0.288 OA
ATOM     15  C   UNL     1     -16.186  -3.525  -1.572  0.00  0.00    +0.114 C 
ENDROOT
BRANCH   8  16
ATOM     16  C   UNL     1     -15.086  -0.793  -3.894  0.00  0.00    +0.025 A 
ATOM     17  C   UNL     1     -14.749   0.478  -3.203  0.00  0.00    +0.012 A 
ATOM     18  C   UNL     1     -14.117   1.585  -3.898  0.00  0.00    +0.001 A 
ATOM     19  C   UNL     1     -13.794   1.446  -5.193  0.00  0.00    +0.004 A 
ATOM     20  C   UNL     1     -13.999   0.187  -5.881  0.00  0.00    +0.046 A 
ATOM     21  C   UNL     1     -14.600  -0.867  -5.301  0.00  0.00    +0.125 A 
BRANCH  21  22
ATOM     22  O   UNL     1     -14.568  -2.082  -5.961  0.00  0.00    -0.506 OA
ATOM     23  H   UNL     1     -14.554  -1.931  -6.921  0.00  0.00    +0.292 HD
ENDBRANCH  21  22
ENDBRANCH   8  16
BRANCH   4  24
ATOM     24  O   UNL     1     -21.479  -2.329  -4.046  0.00  0.00    -0.503 OA
ATOM     25  H   UNL     1     -21.566  -3.223  -4.430  0.00  0.00    +0.292 HD
ENDBRANCH   4  24
BRANCH   5  26
ATOM     26  O   UNL     1     -20.198  -0.348  -5.375  0.00  0.00    -0.503 OA
ATOM     27  H   UNL     1     -19.577   0.213  -5.870  0.00  0.00    +0.292 HD
ENDBRANCH   5  26
BRANCH  11  28
ATOM     28  O   UNL     1     -12.170  -4.056  -0.915  0.00  0.00    -0.503 OA
ATOM     29  H   UNL     1     -11.843  -3.293  -1.455  0.00  0.00    +0.292 HD
ENDBRANCH  11  28
TORSDOF 5
ENDMDL
MODEL 7
REMARK VINA RESULT:      -7.3     14.127     16.638
REMARK  Name = min_compound995.pdb
REMARK  5 active torsions:
REMARK  status: ('A' for Active; 'I' for Inactive)
REMARK    1  A    between atoms: _6  and  _24
REMARK    2  A    between atoms: _8  and  _9
REMARK    3  A    between atoms: _12  and  _25
REMARK    4  A    between atoms: _15  and  _22
REMARK    5  A    between atoms: _19  and  _23
REMARK                            x       y       z     vdW  Elec       q    Type
REMARK                         _______ _______ _______ _____ _____    ______ ____
ROOT
ATOM      1  O   UNL     1     -17.454  -3.771  -2.071  0.00  0.00    -0.483 OA
ATOM      2  C   UNL     1     -16.123  -3.658  -1.749  0.00  0.00    +0.231 C 
ATOM      3  C   UNL     1     -15.671  -4.640  -0.854  0.00  0.00    +0.071 C 
ATOM      4  C   UNL     1     -14.325  -4.718  -0.553  0.00  0.00    +0.158 C 
ATOM      5  C   UNL     1     -13.427  -3.853  -1.159  0.00  0.00    +0.158 C 
ATOM      6  C   UNL     1     -13.874  -2.877  -2.049  0.00  0.00    +0.057 C 
ATOM      7  C   UNL     1     -15.249  -2.710  -2.314  0.00  0.00    +0.009 C 
ATOM      8  C   UNL     1     -15.838  -1.708  -3.280  0.00  0.00    +0.003 C 
ATOM      9  C   UNL     1     -17.326  -1.779  -3.489  0.00  0.00    +0.025 C 
ATOM     10  C   UNL     1     -18.098  -0.788  -4.107  0.00  0.00    +0.060 C 
ATOM     11  C   UNL     1     -19.478  -0.952  -4.235  0.00  0.00    +0.160 C 
ATOM     12  C   UNL     1     -20.209  -2.047  -3.743  0.00  0.00    +0.204 C 
ATOM     13  C   UNL     1     -19.424  -2.972  -3.047  0.00  0.00    +0.157 C 
ATOM     14  O   UNL     1     -21.473  -2.154  -3.899  0.00  0.00    -0.288 OA
ATOM     15  C   UNL     1     -18.028  -2.832  -2.894  0.00  0.00    +0.114 C 
ENDROOT
BRANCH   8  16
ATOM     16  C   UNL     1     -15.063  -0.777  -3.917  0.00  0.00    +0.025 A 
ATOM     17  C   UNL     1     -14.714   0.489  -3.223  0.00  0.00    +0.012 A 
ATOM     18  C   UNL     1     -14.089   1.599  -3.920  0.00  0.00    +0.001 A 
ATOM     19  C   UNL     1     -13.783   1.467  -5.219  0.00  0.00    +0.004 A 
ATOM     20  C   UNL     1     -14.001   0.212  -5.912  0.00  0.00    +0.046 A 
ATOM     21  C   UNL     1     -14.596  -0.844  -5.330  0.00  0.00    +0.125 A 
BRANCH  21  22
ATOM     22  O   UNL     1     -14.576  -2.055  -5.997  0.00  0.00    -0.506 OA
ATOM     23  H   UNL     1     -14.916  -1.935  -6.900  0.00  0.00    +0.292 HD
ENDBRANCH  21  22
ENDBRANCH   8  16
BRANCH   4  24
ATOM     24  O   UNL     1     -13.878  -5.674   0.312  0.00  0.00    -0.503 OA
ATOM     25  H   UNL     1     -13.959  -5.261   1.193  0.00  0.00    +0.292 HD
ENDBRANCH   4  24
BRANCH   5  26
ATOM     26  O   UNL     1     -12.098  -4.010  -0.869  0.00  0.00    -0.503 OA
ATOM     27  H   UNL     1     -11.615  -4.072  -1.710  0.00  0.00    +0.292 HD
ENDBRANCH   5  26
BRANCH  11  28
ATOM     28  O   UNL     1     -20.206   0.023  -4.881  0.00  0.00    -0.503 OA
ATOM     29  H   UNL     1     -21.091  -0.183  -4.488  0.00  0.00    +0.292 HD
ENDBRANCH  11  28
TORSDOF 5
ENDMDL
MODEL 8
REMARK VINA RESULT:      -7.2      2.503      6.745
REMARK  Name = min_compound995.pdb
REMARK  5 active torsions:
REMARK  status: ('A' for Active; 'I' for Inactive)
REMARK    1  A    between atoms: _6  and  _24
REMARK    2  A    between atoms: _8  and  _9
REMARK    3  A    between atoms: _12  and  _25
REMARK    4  A    between atoms: _15  and  _22
REMARK    5  A    between atoms: _19  and  _23
REMARK                            x       y       z     vdW  Elec       q    Type
REMARK                         _______ _______ _______ _____ _____    ______ ____
ROOT
ATOM      1  O   UNL     1     -15.807   5.742 -20.092  0.00  0.00    -0.483 OA
ATOM      2  C   UNL     1     -15.416   6.611 -19.101  0.00  0.00    +0.231 C 
ATOM      3  C   UNL     1     -16.121   7.824 -19.102  0.00  0.00    +0.071 C 
ATOM      4  C   UNL     1     -15.916   8.730 -18.080  0.00  0.00    +0.158 C 
ATOM      5  C   UNL     1     -15.047   8.424 -17.044  0.00  0.00    +0.158 C 
ATOM      6  C   UNL     1     -14.346   7.218 -17.041  0.00  0.00    +0.057 C 
ATOM      7  C   UNL     1     -14.462   6.307 -18.112  0.00  0.00    +0.009 C 
ATOM      8  C   UNL     1     -13.774   4.964 -18.196  0.00  0.00    +0.003 C 
ATOM      9  C   UNL     1     -14.128   4.106 -19.380  0.00  0.00    +0.025 C 
ATOM     10  C   UNL     1     -13.415   2.976 -19.794  0.00  0.00    +0.060 C 
ATOM     11  C   UNL     1     -13.826   2.260 -20.920  0.00  0.00    +0.160 C 
ATOM     12  C   UNL     1     -14.913   2.605 -21.741  0.00  0.00    +0.204 C 
ATOM     13  C   UNL     1     -15.546   3.793 -21.358  0.00  0.00    +0.157 C 
ATOM     14  O   UNL     1     -15.255   1.907 -22.756  0.00  0.00    -0.288 OA
ATOM     15  C   UNL     1     -15.150   4.542 -20.230  0.00  0.00    +0.114 C 
ENDROOT
BRANCH   8  16
ATOM     16  C   UNL     1     -12.867   4.558 -17.255  0.00  0.00    +0.025 A 
ATOM     17  C   UNL     1     -11.475   5.074 -17.304  0.00  0.00    +0.012 A 
ATOM     18  C   UNL     1     -10.420   4.516 -16.477  0.00  0.00    +0.001 A 
ATOM     19  C   UNL     1     -10.715   3.528 -15.619  0.00  0.00    +0.004 A 
ATOM     20  C   UNL     1     -12.079   3.066 -15.455  0.00  0.00    +0.046 A 
ATOM     21  C   UNL     1     -13.096   3.526 -16.205  0.00  0.00    +0.125 A 
BRANCH  21  22
ATOM     22  O   UNL     1     -14.384   3.181 -15.841  0.00  0.00    -0.506 OA
ATOM     23  H   UNL     1     -14.660   2.388 -16.331  0.00  0.00    +0.292 HD
ENDBRANCH  21  22
ENDBRANCH   8  16
BRANCH   4  24
ATOM     24  O   UNL     1     -16.602   9.910 -18.071  0.00  0.00    -0.503 OA
ATOM     25  H   UNL     1     -15.923  10.586 -18.256  0.00  0.00    +0.292 HD
ENDBRANCH   4  24
BRANCH   5  26
ATOM     26  O   UNL     1     -14.923   9.332 -16.027  0.00  0.00    -0.503 OA
ATOM     27  H   UNL     1     -14.549  10.148 -16.400  0.00  0.00    +0.292 HD
ENDBRANCH   5  26
BRANCH  11  28
ATOM     28  O   UNL     1     -13.127   1.130 -21.281  0.00  0.00    -0.503 OA
ATOM     29  H   UNL     1     -13.218   1.220 -22.263  0.00  0.00    +0.292 HD
ENDBRANCH  11  28
TORSDOF 5
ENDMDL
MODEL 9
REMARK VINA RESULT:      -7.1      2.247      7.545
REMARK  Name = min_compound995.pdb
REMARK  5 active torsions:
REMARK  status: ('A' for Active; 'I' for Inactive)
REMARK    1  A    between atoms: _6  and  _24
REMARK    2  A    between atoms: _8  and  _9
REMARK    3  A    between atoms: _12  and  _25
REMARK    4  A    between atoms: _15  and  _22
REMARK    5  A    between atoms: _19  and  _23
REMARK                            x       y       z     vdW  Elec       q    Type
REMARK                         _______ _______ _______ _____ _____    ______ ____
ROOT
ATOM      1  O   UNL     1     -14.550   6.133 -17.468  0.00  0.00    -0.483 OA
ATOM      2  C   UNL     1     -15.027   7.024 -16.538  0.00  0.00    +0.231 C 
ATOM      3  C   UNL     1     -15.137   8.338 -17.017  0.00  0.00    +0.071 C 
ATOM      4  C   UNL     1     -15.726   9.304 -16.225  0.00  0.00    +0.158 C 
ATOM      5  C   UNL     1     -16.235   8.966 -14.981  0.00  0.00    +0.158 C 
ATOM      6  C   UNL     1     -16.127   7.660 -14.502  0.00  0.00    +0.057 C 
ATOM      7  C   UNL     1     -15.454   6.667 -15.245  0.00  0.00    +0.009 C 
ATOM      8  C   UNL     1     -15.305   5.220 -14.836  0.00  0.00    +0.003 C 
ATOM      9  C   UNL     1     -14.644   4.310 -15.835  0.00  0.00    +0.025 C 
ATOM     10  C   UNL     1     -14.162   3.027 -15.554  0.00  0.00    +0.060 C 
ATOM     11  C   UNL     1     -13.550   2.272 -16.557  0.00  0.00    +0.160 C 
ATOM     12  C   UNL     1     -13.323   2.713 -17.872  0.00  0.00    +0.204 C 
ATOM     13  C   UNL     1     -13.728   4.034 -18.094  0.00  0.00    +0.157 C 
ATOM     14  O   UNL     1     -12.767   1.976 -18.757  0.00  0.00    -0.288 OA
ATOM     15  C   UNL     1     -14.343   4.824 -17.100  0.00  0.00    +0.114 C 
ENDROOT
BRANCH   8  16
ATOM     16  C   UNL     1     -15.735   4.766 -13.619  0.00  0.00    +0.025 A 
ATOM     17  C   UNL     1     -14.950   5.082 -12.397  0.00  0.00    +0.012 A 
ATOM     18  C   UNL     1     -15.229   4.449 -11.121  0.00  0.00    +0.001 A 
ATOM     19  C   UNL     1     -16.247   3.580 -11.030  0.00  0.00    +0.004 A 
ATOM     20  C   UNL     1     -17.111   3.323 -12.166  0.00  0.00    +0.046 A 
ATOM     21  C   UNL     1     -16.893   3.859 -13.379  0.00  0.00    +0.125 A 
BRANCH  21  22
ATOM     22  O   UNL     1     -17.876   3.723 -14.341  0.00  0.00    -0.506 OA
ATOM     23  H   UNL     1     -18.653   4.252 -14.089  0.00  0.00    +0.292 HD
ENDBRANCH  21  22
ENDBRANCH   8  16
BRANCH   4  24
ATOM     24  O   UNL     1     -15.842  10.583 -16.688  0.00  0.00    -0.503 OA
ATOM     25  H   UNL     1     -15.213  11.095 -16.144  0.00  0.00    +0.292 HD
ENDBRANCH   4  24
BRANCH   5  26
ATOM     26  O   UNL     1     -16.859   9.948 -14.260  0.00  0.00    -0.503 OA
ATOM     27  H   UNL     1     -16.803  10.774 -14.770  0.00  0.00    +0.292 HD
ENDBRANCH   5  26
BRANCH  11  28
ATOM     28  O   UNL     1     -13.119   0.998 -16.261  0.00  0.00    -0.503 OA
ATOM     29  H   UNL     1     -12.228   1.051 -16.689  0.00  0.00    +0.292 HD
ENDBRANCH  11  28
TORSDOF 5
ENDMDL
