MODEL 1
REMARK VINA RESULT:      -6.6      0.000      0.000
REMARK  Name = min_compound948.pdb
REMARK  4 active torsions:
REMARK  status: ('A' for Active; 'I' for Inactive)
REMARK    1  A    between atoms: _4  and  _15
REMARK    2  A    between atoms: _8  and  _9
REMARK    3  A    between atoms: _10  and  _18
REMARK    4  A    between atoms: _14  and  _19
REMARK                            x       y       z     vdW  Elec       q    Type
REMARK                         _______ _______ _______ _____ _____    ______ ____
ROOT
ATOM      1  C   UNL     1      -9.950   1.645 -17.258  0.00  0.00    +0.099 A 
ATOM      2  N   UNL     1     -11.229   2.018 -16.828  0.00  0.00    -0.240 N 
ATOM      3  C   UNL     1     -11.810   3.246 -16.620  0.00  0.00    +0.397 A 
ATOM      4  C   UNL     1     -13.097   3.029 -16.196  0.00  0.00    +0.240 A 
ATOM      5  N   UNL     1     -13.347   1.668 -16.172  0.00  0.00    -0.204 NA
ATOM      6  C   UNL     1     -12.228   1.084 -16.544  0.00  0.00    +0.145 A 
ATOM      7  C   UNL     1     -11.907  -0.294 -16.706  0.00  0.00    +0.047 A 
ATOM      8  C   UNL     1     -10.677  -0.651 -17.118  0.00  0.00    +0.005 A 
ATOM      9  C   UNL     1      -9.655   0.342 -17.405  0.00  0.00    +0.018 A 
ENDROOT
BRANCH   4  10
ATOM     10  N   UNL     1     -14.174   3.888 -15.817  0.00  0.00    -0.274 N 
ATOM     11  C   UNL     1     -15.055   4.671 -16.563  0.00  0.00    +0.119 A 
ATOM     12  C   UNL     1     -14.984   4.934 -18.022  0.00  0.00    +0.087 C 
ATOM     13  N   UNL     1     -15.944   5.271 -15.786  0.00  0.00    -0.167 NA
ATOM     14  C   UNL     1     -15.600   4.939 -14.501  0.00  0.00    +0.385 A 
ATOM     15  C   UNL     1     -14.501   4.120 -14.491  0.00  0.00    +0.201 A 
BRANCH  14  16
ATOM     16  N   UNL     1     -16.335   5.445 -13.364  0.00  0.00    +0.102 N 
ATOM     17  O   UNL     1     -16.031   6.563 -12.928  0.00  0.00    +0.043 OA
ATOM     18  O   UNL     1     -17.223   4.709 -12.904  0.00  0.00    -0.575 OA
ENDBRANCH  14  16
ENDBRANCH   4  10
BRANCH   3  19
ATOM     19  N   UNL     1     -11.128   4.412 -16.988  0.00  0.00    +0.103 N 
ATOM     20  O   UNL     1     -11.445   4.911 -18.071  0.00  0.00    +0.043 OA
ATOM     21  O   UNL     1     -10.275   4.830 -16.199  0.00  0.00    -0.575 OA
ENDBRANCH   3  19
TORSDOF 3
ENDMDL
MODEL 2
REMARK VINA RESULT:      -6.5      2.575      6.145
REMARK  Name = min_compound948.pdb
REMARK  4 active torsions:
REMARK  status: ('A' for Active; 'I' for Inactive)
REMARK    1  A    between atoms: _4  and  _15
REMARK    2  A    between atoms: _8  and  _9
REMARK    3  A    between atoms: _10  and  _18
REMARK    4  A    between atoms: _14  and  _19
REMARK                            x       y       z     vdW  Elec       q    Type
REMARK                         _______ _______ _______ _____ _____    ______ ____
ROOT
ATOM      1  C   UNL     1     -15.570   6.690 -16.384  0.00  0.00    +0.099 A 
ATOM      2  N   UNL     1     -14.807   5.565 -16.047  0.00  0.00    -0.240 N 
ATOM      3  C   UNL     1     -13.728   4.969 -16.654  0.00  0.00    +0.397 A 
ATOM      4  C   UNL     1     -13.370   3.886 -15.890  0.00  0.00    +0.240 A 
ATOM      5  N   UNL     1     -14.193   3.817 -14.780  0.00  0.00    -0.204 NA
ATOM      6  C   UNL     1     -15.043   4.816 -14.892  0.00  0.00    +0.145 A 
ATOM      7  C   UNL     1     -16.105   5.234 -14.041  0.00  0.00    +0.047 A 
ATOM      8  C   UNL     1     -16.838   6.315 -14.367  0.00  0.00    +0.005 A 
ATOM      9  C   UNL     1     -16.574   7.075 -15.577  0.00  0.00    +0.018 A 
ENDROOT
BRANCH   4  10
ATOM     10  N   UNL     1     -12.355   2.887 -16.001  0.00  0.00    -0.274 N 
ATOM     11  C   UNL     1     -10.966   2.945 -15.889  0.00  0.00    +0.119 A 
ATOM     12  C   UNL     1     -10.141   4.173 -15.765  0.00  0.00    +0.087 C 
ATOM     13  N   UNL     1     -10.421   1.745 -16.014  0.00  0.00    -0.167 NA
ATOM     14  C   UNL     1     -11.458   0.890 -16.287  0.00  0.00    +0.385 A 
ATOM     15  C   UNL     1     -12.648   1.570 -16.317  0.00  0.00    +0.201 A 
BRANCH  14  16
ATOM     16  N   UNL     1     -11.239  -0.519 -16.522  0.00  0.00    +0.102 N 
ATOM     17  O   UNL     1     -10.106  -0.880 -16.867  0.00  0.00    +0.043 OA
ATOM     18  O   UNL     1     -12.216  -1.267 -16.362  0.00  0.00    -0.575 OA
ENDBRANCH  14  16
ENDBRANCH   4  10
BRANCH   3  19
ATOM     19  N   UNL     1     -13.118   5.583 -17.755  0.00  0.00    +0.103 N 
ATOM     20  O   UNL     1     -12.267   6.438 -17.499  0.00  0.00    +0.043 OA
ATOM     21  O   UNL     1     -13.489   5.214 -18.873  0.00  0.00    -0.575 OA
ENDBRANCH   3  19
TORSDOF 3
ENDMDL
MODEL 3
REMARK VINA RESULT:      -6.5      2.722      6.458
REMARK  Name = min_compound948.pdb
REMARK  4 active torsions:
REMARK  status: ('A' for Active; 'I' for Inactive)
REMARK    1  A    between atoms: _4  and  _15
REMARK    2  A    between atoms: _8  and  _9
REMARK    3  A    between atoms: _10  and  _18
REMARK    4  A    between atoms: _14  and  _19
REMARK                            x       y       z     vdW  Elec       q    Type
REMARK                         _______ _______ _______ _____ _____    ______ ____
ROOT
ATOM      1  C   UNL     1     -15.876   6.619 -15.966  0.00  0.00    +0.099 A 
ATOM      2  N   UNL     1     -14.750   5.837 -16.251  0.00  0.00    -0.240 N 
ATOM      3  C   UNL     1     -14.369   4.585 -15.832  0.00  0.00    +0.397 A 
ATOM      4  C   UNL     1     -13.164   4.299 -16.424  0.00  0.00    +0.240 A 
ATOM      5  N   UNL     1     -12.799   5.349 -17.248  0.00  0.00    -0.204 NA
ATOM      6  C   UNL     1     -13.747   6.254 -17.128  0.00  0.00    +0.145 A 
ATOM      7  C   UNL     1     -13.901   7.528 -17.745  0.00  0.00    +0.047 A 
ATOM      8  C   UNL     1     -14.983   8.279 -17.471  0.00  0.00    +0.005 A 
ATOM      9  C   UNL     1     -16.011   7.822 -16.551  0.00  0.00    +0.018 A 
ENDROOT
BRANCH   4  10
ATOM     10  N   UNL     1     -12.276   3.181 -16.375  0.00  0.00    -0.274 N 
ATOM     11  C   UNL     1     -10.927   3.070 -16.039  0.00  0.00    +0.119 A 
ATOM     12  C   UNL     1      -9.988   4.190 -15.776  0.00  0.00    +0.087 C 
ATOM     13  N   UNL     1     -10.520   1.811 -16.080  0.00  0.00    -0.167 NA
ATOM     14  C   UNL     1     -11.597   1.086 -16.522  0.00  0.00    +0.385 A 
ATOM     15  C   UNL     1     -12.674   1.906 -16.741  0.00  0.00    +0.201 A 
BRANCH  14  16
ATOM     16  N   UNL     1     -11.518  -0.343 -16.726  0.00  0.00    +0.102 N 
ATOM     17  O   UNL     1     -12.415  -1.047 -16.245  0.00  0.00    +0.043 OA
ATOM     18  O   UNL     1     -10.543  -0.759 -17.373  0.00  0.00    -0.575 OA
ENDBRANCH  14  16
ENDBRANCH   4  10
BRANCH   3  19
ATOM     19  N   UNL     1     -15.249   3.803 -15.073  0.00  0.00    +0.103 N 
ATOM     20  O   UNL     1     -16.062   3.126 -15.708  0.00  0.00    +0.043 OA
ATOM     21  O   UNL     1     -15.132   3.866 -13.846  0.00  0.00    -0.575 OA
ENDBRANCH   3  19
TORSDOF 3
ENDMDL
MODEL 4
REMARK VINA RESULT:      -6.5      1.987      2.631
REMARK  Name = min_compound948.pdb
REMARK  4 active torsions:
REMARK  status: ('A' for Active; 'I' for Inactive)
REMARK    1  A    between atoms: _4  and  _15
REMARK    2  A    between atoms: _8  and  _9
REMARK    3  A    between atoms: _10  and  _18
REMARK    4  A    between atoms: _14  and  _19
REMARK                            x       y       z     vdW  Elec       q    Type
REMARK                         _______ _______ _______ _____ _____    ______ ____
ROOT
ATOM      1  C   UNL     1     -10.006   1.073 -16.241  0.00  0.00    +0.099 A 
ATOM      2  N   UNL     1     -11.235   1.744 -16.246  0.00  0.00    -0.240 N 
ATOM      3  C   UNL     1     -11.556   3.078 -16.182  0.00  0.00    +0.397 A 
ATOM      4  C   UNL     1     -12.924   3.178 -16.224  0.00  0.00    +0.240 A 
ATOM      5  N   UNL     1     -13.471   1.913 -16.354  0.00  0.00    -0.204 NA
ATOM      6  C   UNL     1     -12.456   1.075 -16.359  0.00  0.00    +0.145 A 
ATOM      7  C   UNL     1     -12.422  -0.344 -16.473  0.00  0.00    +0.047 A 
ATOM      8  C   UNL     1     -11.239  -0.987 -16.468  0.00  0.00    +0.005 A 
ATOM      9  C   UNL     1      -9.983  -0.267 -16.346  0.00  0.00    +0.018 A 
ENDROOT
BRANCH   4  10
ATOM     10  N   UNL     1     -13.840   4.274 -16.185  0.00  0.00    -0.274 N 
ATOM     11  C   UNL     1     -14.795   4.664 -15.246  0.00  0.00    +0.119 A 
ATOM     12  C   UNL     1     -15.220   3.896 -14.048  0.00  0.00    +0.087 C 
ATOM     13  N   UNL     1     -15.388   5.793 -15.600  0.00  0.00    -0.167 NA
ATOM     14  C   UNL     1     -14.871   6.116 -16.829  0.00  0.00    +0.385 A 
ATOM     15  C   UNL     1     -13.945   5.185 -17.223  0.00  0.00    +0.201 A 
BRANCH  14  16
ATOM     16  N   UNL     1     -15.312   7.286 -17.554  0.00  0.00    +0.102 N 
ATOM     17  O   UNL     1     -16.404   7.230 -18.135  0.00  0.00    +0.043 OA
ATOM     18  O   UNL     1     -14.551   8.267 -17.543  0.00  0.00    -0.575 OA
ENDBRANCH  14  16
ENDBRANCH   4  10
BRANCH   3  19
ATOM     19  N   UNL     1     -10.544   4.045 -16.242  0.00  0.00    +0.103 N 
ATOM     20  O   UNL     1     -10.004   4.336 -15.172  0.00  0.00    +0.043 OA
ATOM     21  O   UNL     1     -10.289   4.514 -17.355  0.00  0.00    -0.575 OA
ENDBRANCH   3  19
TORSDOF 3
ENDMDL
MODEL 5
REMARK VINA RESULT:      -6.4      2.963      4.054
REMARK  Name = min_compound948.pdb
REMARK  4 active torsions:
REMARK  status: ('A' for Active; 'I' for Inactive)
REMARK    1  A    between atoms: _4  and  _15
REMARK    2  A    between atoms: _8  and  _9
REMARK    3  A    between atoms: _10  and  _18
REMARK    4  A    between atoms: _14  and  _19
REMARK                            x       y       z     vdW  Elec       q    Type
REMARK                         _______ _______ _______ _____ _____    ______ ____
ROOT
ATOM      1  C   UNL     1     -10.450   0.909 -15.448  0.00  0.00    +0.099 A 
ATOM      2  N   UNL     1     -11.179   1.395 -16.541  0.00  0.00    -0.240 N 
ATOM      3  C   UNL     1     -11.903   2.547 -16.725  0.00  0.00    +0.397 A 
ATOM      4  C   UNL     1     -12.415   2.516 -17.998  0.00  0.00    +0.240 A 
ATOM      5  N   UNL     1     -11.986   1.365 -18.635  0.00  0.00    -0.204 NA
ATOM      6  C   UNL     1     -11.259   0.710 -17.755  0.00  0.00    +0.145 A 
ATOM      7  C   UNL     1     -10.563  -0.528 -17.861  0.00  0.00    +0.047 A 
ATOM      8  C   UNL     1      -9.863  -0.994 -16.810  0.00  0.00    +0.005 A 
ATOM      9  C   UNL     1      -9.799  -0.262 -15.556  0.00  0.00    +0.018 A 
ENDROOT
BRANCH   4  10
ATOM     10  N   UNL     1     -13.242   3.401 -18.757  0.00  0.00    -0.274 N 
ATOM     11  C   UNL     1     -13.090   4.737 -19.129  0.00  0.00    +0.119 A 
ATOM     12  C   UNL     1     -12.028   5.666 -18.667  0.00  0.00    +0.087 C 
ATOM     13  N   UNL     1     -14.094   5.143 -19.890  0.00  0.00    -0.167 NA
ATOM     14  C   UNL     1     -14.960   4.083 -19.962  0.00  0.00    +0.385 A 
ATOM     15  C   UNL     1     -14.477   3.016 -19.250  0.00  0.00    +0.201 A 
BRANCH  14  16
ATOM     16  N   UNL     1     -16.205   4.168 -20.692  0.00  0.00    +0.102 N 
ATOM     17  O   UNL     1     -16.368   3.404 -21.651  0.00  0.00    +0.043 OA
ATOM     18  O   UNL     1     -17.024   5.014 -20.297  0.00  0.00    -0.575 OA
ENDBRANCH  14  16
ENDBRANCH   4  10
BRANCH   3  19
ATOM     19  N   UNL     1     -11.880   3.552 -15.749  0.00  0.00    +0.103 N 
ATOM     20  O   UNL     1     -12.923   3.717 -15.112  0.00  0.00    +0.043 OA
ATOM     21  O   UNL     1     -10.823   4.176 -15.619  0.00  0.00    -0.575 OA
ENDBRANCH   3  19
TORSDOF 3
ENDMDL
MODEL 6
REMARK VINA RESULT:      -6.3     10.197     12.803
REMARK  Name = min_compound948.pdb
REMARK  4 active torsions:
REMARK  status: ('A' for Active; 'I' for Inactive)
REMARK    1  A    between atoms: _4  and  _15
REMARK    2  A    between atoms: _8  and  _9
REMARK    3  A    between atoms: _10  and  _18
REMARK    4  A    between atoms: _14  and  _19
REMARK                            x       y       z     vdW  Elec       q    Type
REMARK                         _______ _______ _______ _____ _____    ______ ____
ROOT
ATOM      1  C   UNL     1     -17.412   3.901  -7.100  0.00  0.00    +0.099 A 
ATOM      2  N   UNL     1     -16.834   2.736  -6.581  0.00  0.00    -0.240 N 
ATOM      3  C   UNL     1     -16.451   2.386  -5.309  0.00  0.00    +0.397 A 
ATOM      4  C   UNL     1     -15.937   1.115  -5.365  0.00  0.00    +0.240 A 
ATOM      5  N   UNL     1     -16.028   0.642  -6.662  0.00  0.00    -0.204 NA
ATOM      6  C   UNL     1     -16.556   1.618  -7.371  0.00  0.00    +0.145 A 
ATOM      7  C   UNL     1     -16.885   1.691  -8.754  0.00  0.00    +0.047 A 
ATOM      8  C   UNL     1     -17.441   2.811  -9.253  0.00  0.00    +0.005 A 
ATOM      9  C   UNL     1     -17.716   3.962  -8.409  0.00  0.00    +0.018 A 
ENDROOT
BRANCH   4  10
ATOM     10  N   UNL     1     -15.378   0.228  -4.395  0.00  0.00    -0.274 N 
ATOM     11  C   UNL     1     -14.351   0.383  -3.464  0.00  0.00    +0.119 A 
ATOM     12  C   UNL     1     -13.428   1.541  -3.353  0.00  0.00    +0.087 C 
ATOM     13  N   UNL     1     -14.205  -0.702  -2.720  0.00  0.00    -0.167 NA
ATOM     14  C   UNL     1     -15.099  -1.617  -3.215  0.00  0.00    +0.385 A 
ATOM     15  C   UNL     1     -15.807  -1.083  -4.261  0.00  0.00    +0.201 A 
BRANCH  14  16
ATOM     16  N   UNL     1     -15.204  -2.950  -2.666  0.00  0.00    +0.102 N 
ATOM     17  O   UNL     1     -14.156  -3.573  -2.453  0.00  0.00    +0.043 OA
ATOM     18  O   UNL     1     -16.351  -3.373  -2.451  0.00  0.00    -0.575 OA
ENDBRANCH  14  16
ENDBRANCH   4  10
BRANCH   3  19
ATOM     19  N   UNL     1     -16.759   3.226  -4.231  0.00  0.00    +0.103 N 
ATOM     20  O   UNL     1     -15.900   4.056  -3.924  0.00  0.00    +0.043 OA
ATOM     21  O   UNL     1     -17.855   3.055  -3.689  0.00  0.00    -0.575 OA
ENDBRANCH   3  19
TORSDOF 3
ENDMDL
MODEL 7
REMARK VINA RESULT:      -6.3      2.861      5.987
REMARK  Name = min_compound948.pdb
REMARK  4 active torsions:
REMARK  status: ('A' for Active; 'I' for Inactive)
REMARK    1  A    between atoms: _4  and  _15
REMARK    2  A    between atoms: _8  and  _9
REMARK    3  A    between atoms: _10  and  _18
REMARK    4  A    between atoms: _14  and  _19
REMARK                            x       y       z     vdW  Elec       q    Type
REMARK                         _______ _______ _______ _____ _____    ______ ____
ROOT
ATOM      1  C   UNL     1     -14.461   7.586 -17.072  0.00  0.00    +0.099 A 
ATOM      2  N   UNL     1     -14.166   6.228 -16.901  0.00  0.00    -0.240 N 
ATOM      3  C   UNL     1     -13.239   5.405 -17.494  0.00  0.00    +0.397 A 
ATOM      4  C   UNL     1     -13.385   4.155 -16.947  0.00  0.00    +0.240 A 
ATOM      5  N   UNL     1     -14.375   4.191 -15.981  0.00  0.00    -0.204 NA
ATOM      6  C   UNL     1     -14.831   5.425 -15.971  0.00  0.00    +0.145 A 
ATOM      7  C   UNL     1     -15.844   6.037 -15.179  0.00  0.00    +0.047 A 
ATOM      8  C   UNL     1     -16.127   7.342 -15.344  0.00  0.00    +0.005 A 
ATOM      9  C   UNL     1     -15.421   8.154 -16.321  0.00  0.00    +0.018 A 
ENDROOT
BRANCH   4  10
ATOM     10  N   UNL     1     -12.734   2.899 -17.155  0.00  0.00    -0.274 N 
ATOM     11  C   UNL     1     -12.633   2.069 -18.271  0.00  0.00    +0.119 A 
ATOM     12  C   UNL     1     -13.353   2.231 -19.559  0.00  0.00    +0.087 C 
ATOM     13  N   UNL     1     -11.875   1.013 -18.021  0.00  0.00    -0.167 NA
ATOM     14  C   UNL     1     -11.529   1.108 -16.697  0.00  0.00    +0.385 A 
ATOM     15  C   UNL     1     -12.069   2.236 -16.137  0.00  0.00    +0.201 A 
BRANCH  14  16
ATOM     16  N   UNL     1     -10.720   0.100 -16.050  0.00  0.00    +0.102 N 
ATOM     17  O   UNL     1      -9.744   0.477 -15.388  0.00  0.00    +0.043 OA
ATOM     18  O   UNL     1     -11.069  -1.081 -16.212  0.00  0.00    -0.575 OA
ENDBRANCH  14  16
ENDBRANCH   4  10
BRANCH   3  19
ATOM     19  N   UNL     1     -12.277   5.944 -18.357  0.00  0.00    +0.103 N 
ATOM     20  O   UNL     1     -11.419   6.662 -17.838  0.00  0.00    +0.043 OA
ATOM     21  O   UNL     1     -12.378   5.654 -19.553  0.00  0.00    -0.575 OA
ENDBRANCH   3  19
TORSDOF 3
ENDMDL
MODEL 8
REMARK VINA RESULT:      -6.2      2.905      6.241
REMARK  Name = min_compound948.pdb
REMARK  4 active torsions:
REMARK  status: ('A' for Active; 'I' for Inactive)
REMARK    1  A    between atoms: _4  and  _15
REMARK    2  A    between atoms: _8  and  _9
REMARK    3  A    between atoms: _10  and  _18
REMARK    4  A    between atoms: _14  and  _19
REMARK                            x       y       z     vdW  Elec       q    Type
REMARK                         _______ _______ _______ _____ _____    ______ ____
ROOT
ATOM      1  C   UNL     1     -16.809   3.915 -17.734  0.00  0.00    +0.099 A 
ATOM      2  N   UNL     1     -15.708   3.277 -17.150  0.00  0.00    -0.240 N 
ATOM      3  C   UNL     1     -14.414   3.099 -17.577  0.00  0.00    +0.397 A 
ATOM      4  C   UNL     1     -13.750   2.395 -16.603  0.00  0.00    +0.240 A 
ATOM      5  N   UNL     1     -14.607   2.161 -15.543  0.00  0.00    -0.204 NA
ATOM      6  C   UNL     1     -15.765   2.685 -15.886  0.00  0.00    +0.145 A 
ATOM      7  C   UNL     1     -17.003   2.747 -15.185  0.00  0.00    +0.047 A 
ATOM      8  C   UNL     1     -18.061   3.360 -15.748  0.00  0.00    +0.005 A 
ATOM      9  C   UNL     1     -17.975   3.966 -17.066  0.00  0.00    +0.018 A 
ENDROOT
BRANCH   4  10
ATOM     10  N   UNL     1     -12.414   1.906 -16.470  0.00  0.00    -0.274 N 
ATOM     11  C   UNL     1     -11.234   2.507 -16.033  0.00  0.00    +0.119 A 
ATOM     12  C   UNL     1     -11.041   3.946 -15.718  0.00  0.00    +0.087 C 
ATOM     13  N   UNL     1     -10.228   1.648 -16.024  0.00  0.00    -0.167 NA
ATOM     14  C   UNL     1     -10.731   0.479 -16.534  0.00  0.00    +0.385 A 
ATOM     15  C   UNL     1     -12.059   0.620 -16.845  0.00  0.00    +0.201 A 
BRANCH  14  16
ATOM     16  N   UNL     1      -9.903  -0.693 -16.710  0.00  0.00    +0.102 N 
ATOM     17  O   UNL     1      -9.920  -1.255 -17.813  0.00  0.00    +0.043 OA
ATOM     18  O   UNL     1      -9.232  -1.051 -15.728  0.00  0.00    -0.575 OA
ENDBRANCH  14  16
ENDBRANCH   4  10
BRANCH   3  19
ATOM     19  N   UNL     1     -13.969   3.734 -18.743  0.00  0.00    +0.103 N 
ATOM     20  O   UNL     1     -14.073   3.088 -19.789  0.00  0.00    +0.043 OA
ATOM     21  O   UNL     1     -13.513   4.874 -18.616  0.00  0.00    -0.575 OA
ENDBRANCH   3  19
TORSDOF 3
ENDMDL
MODEL 9
REMARK VINA RESULT:      -6.2      2.694      3.234
REMARK  Name = min_compound948.pdb
REMARK  4 active torsions:
REMARK  status: ('A' for Active; 'I' for Inactive)
REMARK    1  A    between atoms: _4  and  _15
REMARK    2  A    between atoms: _8  and  _9
REMARK    3  A    between atoms: _10  and  _18
REMARK    4  A    between atoms: _14  and  _19
REMARK                            x       y       z     vdW  Elec       q    Type
REMARK                         _______ _______ _______ _____ _____    ______ ____
ROOT
ATOM      1  C   UNL     1     -11.851   1.095 -18.066  0.00  0.00    +0.099 A 
ATOM      2  N   UNL     1     -12.102   2.401 -17.627  0.00  0.00    -0.240 N 
ATOM      3  C   UNL     1     -12.912   3.397 -18.117  0.00  0.00    +0.397 A 
ATOM      4  C   UNL     1     -12.775   4.485 -17.292  0.00  0.00    +0.240 A 
ATOM      5  N   UNL     1     -11.912   4.169 -16.258  0.00  0.00    -0.204 NA
ATOM      6  C   UNL     1     -11.517   2.933 -16.476  0.00  0.00    +0.145 A 
ATOM      7  C   UNL     1     -10.637   2.093 -15.736  0.00  0.00    +0.047 A 
ATOM      8  C   UNL     1     -10.396   0.838 -16.158  0.00  0.00    +0.005 A 
ATOM      9  C   UNL     1     -11.016   0.310 -17.362  0.00  0.00    +0.018 A 
ENDROOT
BRANCH   4  10
ATOM     10  N   UNL     1     -13.338   5.798 -17.282  0.00  0.00    -0.274 N 
ATOM     11  C   UNL     1     -12.984   6.975 -17.943  0.00  0.00    +0.119 A 
ATOM     12  C   UNL     1     -11.762   7.196 -18.757  0.00  0.00    +0.087 C 
ATOM     13  N   UNL     1     -13.833   7.954 -17.674  0.00  0.00    -0.167 NA
ATOM     14  C   UNL     1     -14.720   7.439 -16.764  0.00  0.00    +0.385 A 
ATOM     15  C   UNL     1     -14.419   6.131 -16.483  0.00  0.00    +0.201 A 
BRANCH  14  16
ATOM     16  N   UNL     1     -15.787   8.240 -16.207  0.00  0.00    +0.102 N 
ATOM     17  O   UNL     1     -15.488   9.097 -15.365  0.00  0.00    +0.043 OA
ATOM     18  O   UNL     1     -16.933   8.001 -16.617  0.00  0.00    -0.575 OA
ENDBRANCH  14  16
ENDBRANCH   4  10
BRANCH   3  19
ATOM     19  N   UNL     1     -13.786   3.128 -19.178  0.00  0.00    +0.103 N 
ATOM     20  O   UNL     1     -13.266   2.955 -20.283  0.00  0.00    +0.043 OA
ATOM     21  O   UNL     1     -14.990   3.094 -18.910  0.00  0.00    -0.575 OA
ENDBRANCH   3  19
TORSDOF 3
ENDMDL
