MODEL 1
REMARK VINA RESULT:      -5.3      0.000      0.000
REMARK  Name = min_compound2.pdb
REMARK  2 active torsions:
REMARK  status: ('A' for Active; 'I' for Inactive)
REMARK    1  A    between atoms: _1  and  _9
REMARK    2  A    between atoms: _2  and  _7
REMARK                            x       y       z     vdW  Elec       q    Type
REMARK                         _______ _______ _______ _____ _____    ______ ____
ROOT
ATOM      1  C   UNL     1     -11.399   1.029 -17.349  0.00  0.00    -0.035 A 
ATOM      2  C   UNL     1     -12.290   1.809 -18.269  0.00  0.00    +0.044 C 
ATOM      3  C   UNL     1     -10.930  -0.246 -17.711  0.00  0.00    +0.024 A 
ATOM      4  C   UNL     1     -10.058  -0.916 -16.863  0.00  0.00    +0.111 A 
ATOM      5  N   UNL     1      -9.615  -0.409 -15.696  0.00  0.00    -0.262 NA
ATOM      6  C   UNL     1     -10.064   0.827 -15.363  0.00  0.00    +0.124 A 
ATOM      7  C   UNL     1     -10.957   1.571 -16.129  0.00  0.00    +0.057 A 
ENDROOT
BRANCH   7   8
ATOM      8  C   UNL     1     -11.346   2.897 -15.599  0.00  0.00    +0.243 C 
ATOM      9  N   UNL     1     -10.364   3.836 -15.454  0.00  0.00    -0.325 N 
ATOM     10  H   UNL     1      -9.455   3.740 -15.884  0.00  0.00    +0.145 HD
ATOM     11  H   UNL     1     -10.669   4.768 -15.201  0.00  0.00    +0.145 HD
ATOM     12  O   UNL     1     -12.514   3.167 -15.348  0.00  0.00    -0.270 OA
ENDBRANCH   7   8
TORSDOF 1
ENDMDL
MODEL 2
REMARK VINA RESULT:      -5.1      2.318      3.784
REMARK  Name = min_compound2.pdb
REMARK  2 active torsions:
REMARK  status: ('A' for Active; 'I' for Inactive)
REMARK    1  A    between atoms: _1  and  _9
REMARK    2  A    between atoms: _2  and  _7
REMARK                            x       y       z     vdW  Elec       q    Type
REMARK                         _______ _______ _______ _____ _____    ______ ____
ROOT
ATOM      1  C   UNL     1     -11.542   3.213 -15.853  0.00  0.00    -0.035 A 
ATOM      2  C   UNL     1     -10.288   4.004 -15.627  0.00  0.00    +0.044 C 
ATOM      3  C   UNL     1     -12.803   3.834 -15.812  0.00  0.00    +0.024 A 
ATOM      4  C   UNL     1     -13.939   3.086 -16.086  0.00  0.00    +0.111 A 
ATOM      5  N   UNL     1     -13.913   1.777 -16.405  0.00  0.00    -0.262 NA
ATOM      6  C   UNL     1     -12.690   1.190 -16.454  0.00  0.00    +0.124 A 
ATOM      7  C   UNL     1     -11.493   1.844 -16.173  0.00  0.00    +0.057 A 
ENDROOT
BRANCH   7   8
ATOM      8  C   UNL     1     -10.255   1.039 -16.265  0.00  0.00    +0.243 C 
ATOM      9  N   UNL     1      -9.633   0.968 -17.479  0.00  0.00    -0.325 N 
ATOM     10  H   UNL     1      -9.850   1.599 -18.237  0.00  0.00    +0.145 HD
ATOM     11  H   UNL     1      -8.730   0.509 -17.493  0.00  0.00    +0.145 HD
ATOM     12  O   UNL     1      -9.773   0.494 -15.280  0.00  0.00    -0.270 OA
ENDBRANCH   7   8
TORSDOF 1
ENDMDL
MODEL 3
REMARK VINA RESULT:      -5.0      1.903      2.539
REMARK  Name = min_compound2.pdb
REMARK  2 active torsions:
REMARK  status: ('A' for Active; 'I' for Inactive)
REMARK    1  A    between atoms: _1  and  _9
REMARK    2  A    between atoms: _2  and  _7
REMARK                            x       y       z     vdW  Elec       q    Type
REMARK                         _______ _______ _______ _____ _____    ______ ____
ROOT
ATOM      1  C   UNL     1     -11.038   1.794 -15.926  0.00  0.00    -0.035 A 
ATOM      2  C   UNL     1     -10.908   3.256 -15.619  0.00  0.00    +0.044 C 
ATOM      3  C   UNL     1     -10.009   0.894 -15.597  0.00  0.00    +0.024 A 
ATOM      4  C   UNL     1     -10.187  -0.461 -15.839  0.00  0.00    +0.111 A 
ATOM      5  N   UNL     1     -11.308  -0.983 -16.372  0.00  0.00    -0.262 NA
ATOM      6  C   UNL     1     -12.300  -0.108 -16.674  0.00  0.00    +0.124 A 
ATOM      7  C   UNL     1     -12.213   1.270 -16.494  0.00  0.00    +0.057 A 
ENDROOT
BRANCH   7   8
ATOM      8  C   UNL     1     -13.392   2.071 -16.894  0.00  0.00    +0.243 C 
ATOM      9  N   UNL     1     -13.437   2.538 -18.178  0.00  0.00    -0.325 N 
ATOM     10  H   UNL     1     -12.828   2.187 -18.904  0.00  0.00    +0.145 HD
ATOM     11  H   UNL     1     -14.301   2.982 -18.462  0.00  0.00    +0.145 HD
ATOM     12  O   UNL     1     -14.321   2.268 -16.122  0.00  0.00    -0.270 OA
ENDBRANCH   7   8
TORSDOF 1
ENDMDL
MODEL 4
REMARK VINA RESULT:      -4.8     11.906     12.573
REMARK  Name = min_compound2.pdb
REMARK  2 active torsions:
REMARK  status: ('A' for Active; 'I' for Inactive)
REMARK    1  A    between atoms: _1  and  _9
REMARK    2  A    between atoms: _2  and  _7
REMARK                            x       y       z     vdW  Elec       q    Type
REMARK                         _______ _______ _______ _____ _____    ______ ____
ROOT
ATOM      1  C   UNL     1     -14.405   0.311  -5.462  0.00  0.00    -0.035 A 
ATOM      2  C   UNL     1     -14.226   1.141  -6.698  0.00  0.00    +0.044 C 
ATOM      3  C   UNL     1     -14.490  -1.091  -5.542  0.00  0.00    +0.024 A 
ATOM      4  C   UNL     1     -14.594  -1.834  -4.374  0.00  0.00    +0.111 A 
ATOM      5  N   UNL     1     -14.610  -1.289  -3.142  0.00  0.00    -0.262 NA
ATOM      6  C   UNL     1     -14.515   0.063  -3.075  0.00  0.00    +0.124 A 
ATOM      7  C   UNL     1     -14.432   0.900  -4.185  0.00  0.00    +0.057 A 
ENDROOT
BRANCH   7   8
ATOM      8  C   UNL     1     -14.348   2.353  -3.920  0.00  0.00    +0.243 C 
ATOM      9  N   UNL     1     -15.514   3.067  -3.918  0.00  0.00    -0.325 N 
ATOM     10  H   UNL     1     -16.421   2.624  -3.873  0.00  0.00    +0.145 HD
ATOM     11  H   UNL     1     -15.447   4.033  -3.622  0.00  0.00    +0.145 HD
ATOM     12  O   UNL     1     -13.282   2.894  -3.659  0.00  0.00    -0.270 OA
ENDBRANCH   7   8
TORSDOF 1
ENDMDL
MODEL 5
REMARK VINA RESULT:      -4.8     11.586     12.455
REMARK  Name = min_compound2.pdb
REMARK  2 active torsions:
REMARK  status: ('A' for Active; 'I' for Inactive)
REMARK    1  A    between atoms: _1  and  _9
REMARK    2  A    between atoms: _2  and  _7
REMARK                            x       y       z     vdW  Elec       q    Type
REMARK                         _______ _______ _______ _____ _____    ______ ____
ROOT
ATOM      1  C   UNL     1     -14.102   0.859  -3.973  0.00  0.00    -0.035 A 
ATOM      2  C   UNL     1     -13.777   2.318  -3.849  0.00  0.00    +0.044 C 
ATOM      3  C   UNL     1     -13.973  -0.004  -2.870  0.00  0.00    +0.024 A 
ATOM      4  C   UNL     1     -14.340  -1.335  -3.002  0.00  0.00    +0.111 A 
ATOM      5  N   UNL     1     -14.832  -1.865  -4.139  0.00  0.00    -0.262 NA
ATOM      6  C   UNL     1     -14.965  -1.021  -5.193  0.00  0.00    +0.124 A 
ATOM      7  C   UNL     1     -14.603   0.323  -5.173  0.00  0.00    +0.057 A 
ENDROOT
BRANCH   7   8
ATOM      8  C   UNL     1     -14.808   1.088  -6.423  0.00  0.00    +0.243 C 
ATOM      9  N   UNL     1     -16.011   1.713  -6.595  0.00  0.00    -0.325 N 
ATOM     10  H   UNL     1     -16.662   1.854  -5.836  0.00  0.00    +0.145 HD
ATOM     11  H   UNL     1     -16.088   2.322  -7.401  0.00  0.00    +0.145 HD
ATOM     12  O   UNL     1     -13.917   1.204  -7.254  0.00  0.00    -0.270 OA
ENDBRANCH   7   8
TORSDOF 1
ENDMDL
MODEL 6
REMARK VINA RESULT:      -4.7     12.778     13.385
REMARK  Name = min_compound2.pdb
REMARK  2 active torsions:
REMARK  status: ('A' for Active; 'I' for Inactive)
REMARK    1  A    between atoms: _1  and  _9
REMARK    2  A    between atoms: _2  and  _7
REMARK                            x       y       z     vdW  Elec       q    Type
REMARK                         _______ _______ _______ _____ _____    ______ ____
ROOT
ATOM      1  C   UNL     1     -14.540   1.269  -3.833  0.00  0.00    -0.035 A 
ATOM      2  C   UNL     1     -13.181   1.051  -3.238  0.00  0.00    +0.044 C 
ATOM      3  C   UNL     1     -15.101   2.557  -3.895  0.00  0.00    +0.024 A 
ATOM      4  C   UNL     1     -16.334   2.733  -4.507  0.00  0.00    +0.111 A 
ATOM      5  N   UNL     1     -17.040   1.731  -5.065  0.00  0.00    -0.262 NA
ATOM      6  C   UNL     1     -16.484   0.494  -5.011  0.00  0.00    +0.124 A 
ATOM      7  C   UNL     1     -15.267   0.207  -4.400  0.00  0.00    +0.057 A 
ENDROOT
BRANCH   7   8
ATOM      8  C   UNL     1     -14.824  -1.205  -4.427  0.00  0.00    +0.243 C 
ATOM      9  N   UNL     1     -14.429  -1.724  -5.628  0.00  0.00    -0.325 N 
ATOM     10  H   UNL     1     -14.224  -1.143  -6.428  0.00  0.00    +0.145 HD
ATOM     11  H   UNL     1     -14.023  -2.651  -5.603  0.00  0.00    +0.145 HD
ATOM     12  O   UNL     1     -14.761  -1.874  -3.404  0.00  0.00    -0.270 OA
ENDBRANCH   7   8
TORSDOF 1
ENDMDL
MODEL 7
REMARK VINA RESULT:      -4.7      1.744      3.413
REMARK  Name = min_compound2.pdb
REMARK  2 active torsions:
REMARK  status: ('A' for Active; 'I' for Inactive)
REMARK    1  A    between atoms: _1  and  _9
REMARK    2  A    between atoms: _2  and  _7
REMARK                            x       y       z     vdW  Elec       q    Type
REMARK                         _______ _______ _______ _____ _____    ______ ____
ROOT
ATOM      1  C   UNL     1     -12.065   2.386 -17.784  0.00  0.00    -0.035 A 
ATOM      2  C   UNL     1     -12.872   1.898 -18.950  0.00  0.00    +0.044 C 
ATOM      3  C   UNL     1     -11.932   3.761 -17.525  0.00  0.00    +0.024 A 
ATOM      4  C   UNL     1     -11.230   4.178 -16.403  0.00  0.00    +0.111 A 
ATOM      5  N   UNL     1     -10.662   3.332 -15.521  0.00  0.00    -0.262 NA
ATOM      6  C   UNL     1     -10.807   2.006 -15.773  0.00  0.00    +0.124 A 
ATOM      7  C   UNL     1     -11.470   1.486 -16.882  0.00  0.00    +0.057 A 
ENDROOT
BRANCH   7   8
ATOM      8  C   UNL     1     -11.517   0.011 -16.999  0.00  0.00    +0.243 C 
ATOM      9  N   UNL     1     -10.445  -0.614 -17.572  0.00  0.00    -0.325 N 
ATOM     10  H   UNL     1      -9.559  -0.151 -17.712  0.00  0.00    +0.145 HD
ATOM     11  H   UNL     1     -10.447  -1.626 -17.537  0.00  0.00    +0.145 HD
ATOM     12  O   UNL     1     -12.457  -0.635 -16.555  0.00  0.00    -0.270 OA
ENDBRANCH   7   8
TORSDOF 1
ENDMDL
MODEL 8
REMARK VINA RESULT:      -4.6     11.519     12.383
REMARK  Name = min_compound2.pdb
REMARK  2 active torsions:
REMARK  status: ('A' for Active; 'I' for Inactive)
REMARK    1  A    between atoms: _1  and  _9
REMARK    2  A    between atoms: _2  and  _7
REMARK                            x       y       z     vdW  Elec       q    Type
REMARK                         _______ _______ _______ _____ _____    ______ ____
ROOT
ATOM      1  C   UNL     1     -14.228   1.185  -4.647  0.00  0.00    -0.035 A 
ATOM      2  C   UNL     1     -13.558   1.355  -3.316  0.00  0.00    +0.044 C 
ATOM      3  C   UNL     1     -13.739   0.259  -5.586  0.00  0.00    +0.024 A 
ATOM      4  C   UNL     1     -14.418   0.083  -6.784  0.00  0.00    +0.111 A 
ATOM      5  N   UNL     1     -15.545   0.746  -7.108  0.00  0.00    -0.262 NA
ATOM      6  C   UNL     1     -16.015   1.627  -6.190  0.00  0.00    +0.124 A 
ATOM      7  C   UNL     1     -15.396   1.897  -4.972  0.00  0.00    +0.057 A 
ENDROOT
BRANCH   7   8
ATOM      8  C   UNL     1     -16.048   2.900  -4.100  0.00  0.00    +0.243 C 
ATOM      9  N   UNL     1     -17.276   2.593  -3.585  0.00  0.00    -0.325 N 
ATOM     10  H   UNL     1     -17.647   1.653  -3.594  0.00  0.00    +0.145 HD
ATOM     11  H   UNL     1     -17.650   3.241  -2.903  0.00  0.00    +0.145 HD
ATOM     12  O   UNL     1     -15.489   3.949  -3.806  0.00  0.00    -0.270 OA
ENDBRANCH   7   8
TORSDOF 1
ENDMDL
MODEL 9
REMARK VINA RESULT:      -4.5     12.910     13.375
REMARK  Name = min_compound2.pdb
REMARK  2 active torsions:
REMARK  status: ('A' for Active; 'I' for Inactive)
REMARK    1  A    between atoms: _1  and  _9
REMARK    2  A    between atoms: _2  and  _7
REMARK                            x       y       z     vdW  Elec       q    Type
REMARK                         _______ _______ _______ _____ _____    ______ ____
ROOT
ATOM      1  C   UNL     1     -15.983   0.789  -4.227  0.00  0.00    -0.035 A 
ATOM      2  C   UNL     1     -17.286   0.084  -4.470  0.00  0.00    +0.044 C 
ATOM      3  C   UNL     1     -15.946   2.178  -4.012  0.00  0.00    +0.024 A 
ATOM      4  C   UNL     1     -14.732   2.789  -3.730  0.00  0.00    +0.111 A 
ATOM      5  N   UNL     1     -13.564   2.124  -3.638  0.00  0.00    -0.262 NA
ATOM      6  C   UNL     1     -13.614   0.782  -3.836  0.00  0.00    +0.124 A 
ATOM      7  C   UNL     1     -14.774   0.077  -4.148  0.00  0.00    +0.057 A 
ENDROOT
BRANCH   7   8
ATOM      8  C   UNL     1     -14.634  -1.383  -4.342  0.00  0.00    +0.243 C 
ATOM      9  N   UNL     1     -14.491  -1.843  -5.622  0.00  0.00    -0.325 N 
ATOM     10  H   UNL     1     -14.263  -1.234  -6.394  0.00  0.00    +0.145 HD
ATOM     11  H   UNL     1     -14.282  -2.829  -5.722  0.00  0.00    +0.145 HD
ATOM     12  O   UNL     1     -14.595  -2.153  -3.392  0.00  0.00    -0.270 OA
ENDBRANCH   7   8
TORSDOF 1
ENDMDL
