MODEL 1
REMARK VINA RESULT:      -6.7      0.000      0.000
REMARK  Name = min_compound959.pdb
REMARK  6 active torsions:
REMARK  status: ('A' for Active; 'I' for Inactive)
REMARK    1  A    between atoms: _1  and  _12
REMARK    2  A    between atoms: _6  and  _18
REMARK    3  A    between atoms: _9  and  _11
REMARK    4  A    between atoms: _9  and  _18
REMARK    5  A    between atoms: _11  and  _19
REMARK    6  A    between atoms: _19  and  _20
REMARK                            x       y       z     vdW  Elec       q    Type
REMARK                         _______ _______ _______ _____ _____    ______ ____
ROOT
ATOM      1  C   UNL     1     -12.403   1.780 -18.188  0.00  0.00    +0.338 C 
ATOM      2  N   UNL     1     -12.752   1.566 -19.483  0.00  0.00    -0.132 N 
ATOM      3  H   UNL     1     -12.534   0.807 -20.072  0.00  0.00    +0.323 HD
ATOM      4  N   UNL     1     -13.534   2.755 -19.767  0.00  0.00    -0.119 N 
ATOM      5  C   UNL     1     -14.670   2.867 -20.554  0.00  0.00    +0.069 C 
ATOM      6  C   UNL     1     -15.565   3.740 -20.030  0.00  0.00    +0.070 C 
ATOM      7  S   UNL     1     -15.080   4.427 -18.467  0.00  0.00    -0.045 S 
ATOM      8  C   UNL     1     -13.645   3.424 -18.576  0.00  0.00    +0.378 C 
ATOM      9  N   UNL     1     -12.896   2.844 -17.589  0.00  0.00    -0.031 NA
ENDROOT
BRANCH   1  10
ATOM     10  C   UNL     1     -11.513   0.812 -17.497  0.00  0.00    +0.067 A 
ATOM     11  C   UNL     1     -10.127   0.927 -17.673  0.00  0.00    +0.016 A 
ATOM     12  C   UNL     1      -9.255   0.040 -17.037  0.00  0.00    +0.001 A 
ATOM     13  C   UNL     1      -9.761  -0.966 -16.217  0.00  0.00    +0.000 A 
ATOM     14  C   UNL     1     -11.139  -1.089 -16.034  0.00  0.00    +0.001 A 
ATOM     15  C   UNL     1     -12.013  -0.203 -16.672  0.00  0.00    +0.016 A 
ENDBRANCH   1  10
BRANCH   5  16
ATOM     16  C   UNL     1     -14.780   2.073 -21.818  0.00  0.00    +0.175 C 
BRANCH  16  17
ATOM     17  C   UNL     1     -13.580   2.218 -22.728  0.00  0.00    +0.313 C 
ATOM     18  O   UNL     1     -12.650   1.422 -22.794  0.00  0.00    -0.250 OA
BRANCH  17  19
ATOM     19  O   UNL     1     -13.685   3.346 -23.493  0.00  0.00    -0.465 OA
BRANCH  19  20
ATOM     20  C   UNL     1     -12.500   4.145 -23.598  0.00  0.00    +0.229 C 
ATOM     21  C   UNL     1     -12.464   5.184 -22.495  0.00  0.00    +0.048 C 
ENDBRANCH  19  20
ENDBRANCH  17  19
ENDBRANCH  16  17
ENDBRANCH   5  16
TORSDOF 5
ENDMDL
MODEL 2
REMARK VINA RESULT:      -6.7      4.414      6.405
REMARK  Name = min_compound959.pdb
REMARK  6 active torsions:
REMARK  status: ('A' for Active; 'I' for Inactive)
REMARK    1  A    between atoms: _1  and  _12
REMARK    2  A    between atoms: _6  and  _18
REMARK    3  A    between atoms: _9  and  _11
REMARK    4  A    between atoms: _9  and  _18
REMARK    5  A    between atoms: _11  and  _19
REMARK    6  A    between atoms: _19  and  _20
REMARK                            x       y       z     vdW  Elec       q    Type
REMARK                         _______ _______ _______ _____ _____    ______ ____
ROOT
ATOM      1  C   UNL     1     -14.591   4.225 -14.949  0.00  0.00    +0.338 C 
ATOM      2  N   UNL     1     -13.424   3.560 -15.148  0.00  0.00    -0.132 N 
ATOM      3  H   UNL     1     -12.981   2.891 -14.577  0.00  0.00    +0.323 HD
ATOM      4  N   UNL     1     -13.004   4.099 -16.428  0.00  0.00    -0.119 N 
ATOM      5  C   UNL     1     -12.363   3.443 -17.467  0.00  0.00    +0.069 C 
ATOM      6  C   UNL     1     -12.806   3.858 -18.678  0.00  0.00    +0.070 C 
ATOM      7  S   UNL     1     -14.119   5.050 -18.602  0.00  0.00    -0.045 S 
ATOM      8  C   UNL     1     -14.036   4.892 -16.858  0.00  0.00    +0.378 C 
ATOM      9  N   UNL     1     -15.016   5.016 -15.911  0.00  0.00    -0.031 NA
ENDROOT
BRANCH   1  10
ATOM     10  C   UNL     1     -15.347   4.023 -13.686  0.00  0.00    +0.067 A 
ATOM     11  C   UNL     1     -16.456   3.166 -13.694  0.00  0.00    +0.016 A 
ATOM     12  C   UNL     1     -17.191   2.944 -12.527  0.00  0.00    +0.001 A 
ATOM     13  C   UNL     1     -16.819   3.575 -11.341  0.00  0.00    +0.000 A 
ATOM     14  C   UNL     1     -15.716   4.429 -11.321  0.00  0.00    +0.001 A 
ATOM     15  C   UNL     1     -14.981   4.653 -12.490  0.00  0.00    +0.016 A 
ENDBRANCH   1  10
BRANCH   5  16
ATOM     16  C   UNL     1     -11.314   2.418 -17.164  0.00  0.00    +0.175 C 
BRANCH  16  17
ATOM     17  C   UNL     1     -11.858   1.011 -17.057  0.00  0.00    +0.313 C 
ATOM     18  O   UNL     1     -12.877   0.697 -16.451  0.00  0.00    -0.250 OA
BRANCH  17  19
ATOM     19  O   UNL     1     -11.076   0.134 -17.755  0.00  0.00    -0.465 OA
BRANCH  19  20
ATOM     20  C   UNL     1      -9.705   0.054 -17.348  0.00  0.00    +0.229 C 
ATOM     21  C   UNL     1      -9.577  -0.770 -16.082  0.00  0.00    +0.048 C 
ENDBRANCH  19  20
ENDBRANCH  17  19
ENDBRANCH  16  17
ENDBRANCH   5  16
TORSDOF 5
ENDMDL
MODEL 3
REMARK VINA RESULT:      -6.7      3.228      3.698
REMARK  Name = min_compound959.pdb
REMARK  6 active torsions:
REMARK  status: ('A' for Active; 'I' for Inactive)
REMARK    1  A    between atoms: _1  and  _12
REMARK    2  A    between atoms: _6  and  _18
REMARK    3  A    between atoms: _9  and  _11
REMARK    4  A    between atoms: _9  and  _18
REMARK    5  A    between atoms: _11  and  _19
REMARK    6  A    between atoms: _19  and  _20
REMARK                            x       y       z     vdW  Elec       q    Type
REMARK                         _______ _______ _______ _____ _____    ______ ____
ROOT
ATOM      1  C   UNL     1     -12.129   3.024 -16.778  0.00  0.00    +0.338 C 
ATOM      2  N   UNL     1     -11.572   4.164 -17.265  0.00  0.00    -0.132 N 
ATOM      3  H   UNL     1     -10.722   4.288 -17.746  0.00  0.00    +0.323 HD
ATOM      4  N   UNL     1     -12.567   5.151 -16.886  0.00  0.00    -0.119 N 
ATOM      5  C   UNL     1     -12.977   6.270 -17.592  0.00  0.00    +0.069 C 
ATOM      6  C   UNL     1     -14.308   6.489 -17.465  0.00  0.00    +0.070 C 
ATOM      7  S   UNL     1     -15.160   5.258 -16.511  0.00  0.00    -0.045 S 
ATOM      8  C   UNL     1     -13.615   4.442 -16.358  0.00  0.00    +0.378 C 
ATOM      9  N   UNL     1     -13.327   3.110 -16.241  0.00  0.00    -0.031 NA
ENDROOT
BRANCH   1  10
ATOM     10  C   UNL     1     -11.390   1.740 -16.887  0.00  0.00    +0.067 A 
ATOM     11  C   UNL     1     -12.047   0.553 -16.540  0.00  0.00    +0.016 A 
ATOM     12  C   UNL     1     -11.390  -0.677 -16.634  0.00  0.00    +0.001 A 
ATOM     13  C   UNL     1     -10.070  -0.728 -17.079  0.00  0.00    +0.000 A 
ATOM     14  C   UNL     1      -9.406   0.448 -17.428  0.00  0.00    +0.001 A 
ATOM     15  C   UNL     1     -10.063   1.680 -17.333  0.00  0.00    +0.016 A 
ENDBRANCH   1  10
BRANCH   5  16
ATOM     16  C   UNL     1     -11.974   7.071 -18.364  0.00  0.00    +0.175 C 
BRANCH  16  17
ATOM     17  C   UNL     1     -11.817   6.620 -19.799  0.00  0.00    +0.313 C 
ATOM     18  O   UNL     1     -12.267   5.576 -20.259  0.00  0.00    -0.250 OA
BRANCH  17  19
ATOM     19  O   UNL     1     -11.130   7.550 -20.528  0.00  0.00    -0.465 OA
BRANCH  19  20
ATOM     20  C   UNL     1     -11.124   7.355 -21.947  0.00  0.00    +0.229 C 
ATOM     21  C   UNL     1     -10.454   8.527 -22.638  0.00  0.00    +0.048 C 
ENDBRANCH  19  20
ENDBRANCH  17  19
ENDBRANCH  16  17
ENDBRANCH   5  16
TORSDOF 5
ENDMDL
MODEL 4
REMARK VINA RESULT:      -6.7      2.897      3.982
REMARK  Name = min_compound959.pdb
REMARK  6 active torsions:
REMARK  status: ('A' for Active; 'I' for Inactive)
REMARK    1  A    between atoms: _1  and  _12
REMARK    2  A    between atoms: _6  and  _18
REMARK    3  A    between atoms: _9  and  _11
REMARK    4  A    between atoms: _9  and  _18
REMARK    5  A    between atoms: _11  and  _19
REMARK    6  A    between atoms: _19  and  _20
REMARK                            x       y       z     vdW  Elec       q    Type
REMARK                         _______ _______ _______ _____ _____    ______ ____
ROOT
ATOM      1  C   UNL     1     -12.513   1.830 -18.372  0.00  0.00    +0.338 C 
ATOM      2  N   UNL     1     -12.939   2.981 -17.789  0.00  0.00    -0.132 N 
ATOM      3  H   UNL     1     -12.724   3.348 -16.901  0.00  0.00    +0.323 HD
ATOM      4  N   UNL     1     -13.798   3.524 -18.827  0.00  0.00    -0.119 N 
ATOM      5  C   UNL     1     -13.973   4.850 -19.187  0.00  0.00    +0.069 C 
ATOM      6  C   UNL     1     -14.113   4.997 -20.527  0.00  0.00    +0.070 C 
ATOM      7  S   UNL     1     -13.954   3.485 -21.444  0.00  0.00    -0.045 S 
ATOM      8  C   UNL     1     -13.648   2.695 -19.908  0.00  0.00    +0.378 C 
ATOM      9  N   UNL     1     -12.881   1.601 -19.615  0.00  0.00    -0.031 NA
ENDROOT
BRANCH   1  10
ATOM     10  C   UNL     1     -11.642   0.899 -17.610  0.00  0.00    +0.067 A 
ATOM     11  C   UNL     1     -10.252   1.041 -17.712  0.00  0.00    +0.016 A 
ATOM     12  C   UNL     1      -9.397   0.190 -17.007  0.00  0.00    +0.001 A 
ATOM     13  C   UNL     1      -9.926  -0.809 -16.192  0.00  0.00    +0.000 A 
ATOM     14  C   UNL     1     -11.309  -0.959 -16.083  0.00  0.00    +0.001 A 
ATOM     15  C   UNL     1     -12.165  -0.108 -16.790  0.00  0.00    +0.016 A 
ENDBRANCH   1  10
BRANCH   5  16
ATOM     16  C   UNL     1     -13.997   5.910 -18.130  0.00  0.00    +0.175 C 
BRANCH  16  17
ATOM     17  C   UNL     1     -12.621   6.392 -17.727  0.00  0.00    +0.313 C 
ATOM     18  O   UNL     1     -12.082   7.410 -18.149  0.00  0.00    -0.250 OA
BRANCH  17  19
ATOM     19  O   UNL     1     -12.066   5.554 -16.801  0.00  0.00    -0.465 OA
BRANCH  19  20
ATOM     20  C   UNL     1     -10.648   5.368 -16.894  0.00  0.00    +0.229 C 
ATOM     21  C   UNL     1     -10.193   4.291 -15.929  0.00  0.00    +0.048 C 
ENDBRANCH  19  20
ENDBRANCH  17  19
ENDBRANCH  16  17
ENDBRANCH   5  16
TORSDOF 5
ENDMDL
MODEL 5
REMARK VINA RESULT:      -6.5      4.391      5.859
REMARK  Name = min_compound959.pdb
REMARK  6 active torsions:
REMARK  status: ('A' for Active; 'I' for Inactive)
REMARK    1  A    between atoms: _1  and  _12
REMARK    2  A    between atoms: _6  and  _18
REMARK    3  A    between atoms: _9  and  _11
REMARK    4  A    between atoms: _9  and  _18
REMARK    5  A    between atoms: _11  and  _19
REMARK    6  A    between atoms: _19  and  _20
REMARK                            x       y       z     vdW  Elec       q    Type
REMARK                         _______ _______ _______ _____ _____    ______ ____
ROOT
ATOM      1  C   UNL     1     -12.374   2.984 -16.890  0.00  0.00    +0.338 C 
ATOM      2  N   UNL     1     -13.633   3.226 -16.440  0.00  0.00    -0.132 N 
ATOM      3  H   UNL     1     -14.199   2.684 -15.844  0.00  0.00    +0.323 HD
ATOM      4  N   UNL     1     -13.920   4.501 -17.073  0.00  0.00    -0.119 N 
ATOM      5  C   UNL     1     -14.635   5.571 -16.561  0.00  0.00    +0.069 C 
ATOM      6  C   UNL     1     -14.096   6.761 -16.921  0.00  0.00    +0.070 C 
ATOM      7  S   UNL     1     -12.600   6.622 -17.868  0.00  0.00    -0.045 S 
ATOM      8  C   UNL     1     -12.756   4.885 -17.686  0.00  0.00    +0.378 C 
ATOM      9  N   UNL     1     -11.794   3.914 -17.618  0.00  0.00    -0.031 NA
ENDROOT
BRANCH   1  10
ATOM     10  C   UNL     1     -11.698   1.710 -16.531  0.00  0.00    +0.067 A 
ATOM     11  C   UNL     1     -12.278   0.501 -16.939  0.00  0.00    +0.016 A 
ATOM     12  C   UNL     1     -11.673  -0.718 -16.627  0.00  0.00    +0.001 A 
ATOM     13  C   UNL     1     -10.479  -0.738 -15.907  0.00  0.00    +0.000 A 
ATOM     14  C   UNL     1      -9.893   0.459 -15.497  0.00  0.00    +0.001 A 
ATOM     15  C   UNL     1     -10.500   1.681 -15.807  0.00  0.00    +0.016 A 
ENDBRANCH   1  10
BRANCH   5  16
ATOM     16  C   UNL     1     -15.852   5.320 -15.725  0.00  0.00    +0.175 C 
BRANCH  16  17
ATOM     17  C   UNL     1     -15.550   5.161 -14.251  0.00  0.00    +0.313 C 
ATOM     18  O   UNL     1     -15.566   6.071 -13.430  0.00  0.00    -0.250 OA
BRANCH  17  19
ATOM     19  O   UNL     1     -15.285   3.855 -13.949  0.00  0.00    -0.465 OA
BRANCH  19  20
ATOM     20  C   UNL     1     -16.383   2.944 -14.083  0.00  0.00    +0.229 C 
ATOM     21  C   UNL     1     -17.209   2.923 -12.812  0.00  0.00    +0.048 C 
ENDBRANCH  19  20
ENDBRANCH  17  19
ENDBRANCH  16  17
ENDBRANCH   5  16
TORSDOF 5
ENDMDL
MODEL 6
REMARK VINA RESULT:      -6.5      3.366      4.815
REMARK  Name = min_compound959.pdb
REMARK  6 active torsions:
REMARK  status: ('A' for Active; 'I' for Inactive)
REMARK    1  A    between atoms: _1  and  _12
REMARK    2  A    between atoms: _6  and  _18
REMARK    3  A    between atoms: _9  and  _11
REMARK    4  A    between atoms: _9  and  _18
REMARK    5  A    between atoms: _11  and  _19
REMARK    6  A    between atoms: _19  and  _20
REMARK                            x       y       z     vdW  Elec       q    Type
REMARK                         _______ _______ _______ _____ _____    ______ ____
ROOT
ATOM      1  C   UNL     1     -12.538   1.920 -17.928  0.00  0.00    +0.338 C 
ATOM      2  N   UNL     1     -13.012   2.896 -17.110  0.00  0.00    -0.132 N 
ATOM      3  H   UNL     1     -12.775   3.098 -16.176  0.00  0.00    +0.323 HD
ATOM      4  N   UNL     1     -13.962   3.561 -17.983  0.00  0.00    -0.119 N 
ATOM      5  C   UNL     1     -14.250   4.915 -18.064  0.00  0.00    +0.069 C 
ATOM      6  C   UNL     1     -14.473   5.309 -19.341  0.00  0.00    +0.070 C 
ATOM      7  S   UNL     1     -14.258   4.024 -20.547  0.00  0.00    -0.045 S 
ATOM      8  C   UNL     1     -13.814   2.976 -19.214  0.00  0.00    +0.378 C 
ATOM      9  N   UNL     1     -12.957   1.910 -19.175  0.00  0.00    -0.031 NA
ENDROOT
BRANCH   1  10
ATOM     10  C   UNL     1     -11.563   0.930 -17.402  0.00  0.00    +0.067 A 
ATOM     11  C   UNL     1     -10.200   1.124 -17.661  0.00  0.00    +0.016 A 
ATOM     12  C   UNL     1      -9.249   0.220 -17.181  0.00  0.00    +0.001 A 
ATOM     13  C   UNL     1      -9.655  -0.884 -16.433  0.00  0.00    +0.000 A 
ATOM     14  C   UNL     1     -11.009  -1.086 -16.168  0.00  0.00    +0.001 A 
ATOM     15  C   UNL     1     -11.962  -0.182 -16.650  0.00  0.00    +0.016 A 
ENDBRANCH   1  10
BRANCH   5  16
ATOM     16  C   UNL     1     -14.291   5.741 -16.817  0.00  0.00    +0.175 C 
BRANCH  16  17
ATOM     17  C   UNL     1     -15.351   5.297 -15.833  0.00  0.00    +0.313 C 
ATOM     18  O   UNL     1     -16.507   5.707 -15.815  0.00  0.00    -0.250 OA
BRANCH  17  19
ATOM     19  O   UNL     1     -14.856   4.350 -14.981  0.00  0.00    -0.465 OA
BRANCH  19  20
ATOM     20  C   UNL     1     -15.825   3.498 -14.358  0.00  0.00    +0.229 C 
ATOM     21  C   UNL     1     -15.939   2.188 -15.111  0.00  0.00    +0.048 C 
ENDBRANCH  19  20
ENDBRANCH  17  19
ENDBRANCH  16  17
ENDBRANCH   5  16
TORSDOF 5
ENDMDL
MODEL 7
REMARK VINA RESULT:      -6.4      3.345      4.411
REMARK  Name = min_compound959.pdb
REMARK  6 active torsions:
REMARK  status: ('A' for Active; 'I' for Inactive)
REMARK    1  A    between atoms: _1  and  _12
REMARK    2  A    between atoms: _6  and  _18
REMARK    3  A    between atoms: _9  and  _11
REMARK    4  A    between atoms: _9  and  _18
REMARK    5  A    between atoms: _11  and  _19
REMARK    6  A    between atoms: _19  and  _20
REMARK                            x       y       z     vdW  Elec       q    Type
REMARK                         _______ _______ _______ _____ _____    ______ ____
ROOT
ATOM      1  C   UNL     1     -12.445   1.917 -18.065  0.00  0.00    +0.338 C 
ATOM      2  N   UNL     1     -12.820   3.010 -17.351  0.00  0.00    -0.132 N 
ATOM      3  H   UNL     1     -12.535   3.297 -16.453  0.00  0.00    +0.323 HD
ATOM      4  N   UNL     1     -13.752   3.642 -18.267  0.00  0.00    -0.119 N 
ATOM      5  C   UNL     1     -13.948   4.996 -18.493  0.00  0.00    +0.069 C 
ATOM      6  C   UNL     1     -14.188   5.261 -19.799  0.00  0.00    +0.070 C 
ATOM      7  S   UNL     1     -14.108   3.838 -20.857  0.00  0.00    -0.045 S 
ATOM      8  C   UNL     1     -13.690   2.914 -19.426  0.00  0.00    +0.378 C 
ATOM      9  N   UNL     1     -12.909   1.799 -19.291  0.00  0.00    -0.031 NA
ENDROOT
BRANCH   1  10
ATOM     10  C   UNL     1     -11.523   0.923 -17.458  0.00  0.00    +0.067 A 
ATOM     11  C   UNL     1     -10.144   1.080 -17.646  0.00  0.00    +0.016 A 
ATOM     12  C   UNL     1      -9.242   0.171 -17.088  0.00  0.00    +0.001 A 
ATOM     13  C   UNL     1      -9.714  -0.902 -16.334  0.00  0.00    +0.000 A 
ATOM     14  C   UNL     1     -11.085  -1.068 -16.139  0.00  0.00    +0.001 A 
ATOM     15  C   UNL     1     -11.988  -0.159 -16.700  0.00  0.00    +0.016 A 
ENDBRANCH   1  10
BRANCH   5  16
ATOM     16  C   UNL     1     -13.885   5.957 -17.347  0.00  0.00    +0.175 C 
BRANCH  16  17
ATOM     17  C   UNL     1     -13.458   7.351 -17.751  0.00  0.00    +0.313 C 
ATOM     18  O   UNL     1     -12.361   7.641 -18.217  0.00  0.00    -0.250 OA
BRANCH  17  19
ATOM     19  O   UNL     1     -14.472   8.245 -17.555  0.00  0.00    -0.465 OA
BRANCH  19  20
ATOM     20  C   UNL     1     -15.324   7.992 -16.431  0.00  0.00    +0.229 C 
ATOM     21  C   UNL     1     -15.619   9.282 -15.692  0.00  0.00    +0.048 C 
ENDBRANCH  19  20
ENDBRANCH  17  19
ENDBRANCH  16  17
ENDBRANCH   5  16
TORSDOF 5
ENDMDL
MODEL 8
REMARK VINA RESULT:      -6.3      2.440      3.507
REMARK  Name = min_compound959.pdb
REMARK  6 active torsions:
REMARK  status: ('A' for Active; 'I' for Inactive)
REMARK    1  A    between atoms: _1  and  _12
REMARK    2  A    between atoms: _6  and  _18
REMARK    3  A    between atoms: _9  and  _11
REMARK    4  A    between atoms: _9  and  _18
REMARK    5  A    between atoms: _11  and  _19
REMARK    6  A    between atoms: _19  and  _20
REMARK                            x       y       z     vdW  Elec       q    Type
REMARK                         _______ _______ _______ _____ _____    ______ ____
ROOT
ATOM      1  C   UNL     1     -11.993   3.041 -16.779  0.00  0.00    +0.338 C 
ATOM      2  N   UNL     1     -11.481   4.120 -17.425  0.00  0.00    -0.132 N 
ATOM      3  H   UNL     1     -10.702   4.178 -18.024  0.00  0.00    +0.323 HD
ATOM      4  N   UNL     1     -12.393   5.166 -16.997  0.00  0.00    -0.119 N 
ATOM      5  C   UNL     1     -12.869   6.242 -17.730  0.00  0.00    +0.069 C 
ATOM      6  C   UNL     1     -14.165   6.515 -17.444  0.00  0.00    +0.070 C 
ATOM      7  S   UNL     1     -14.907   5.389 -16.289  0.00  0.00    -0.045 S 
ATOM      8  C   UNL     1     -13.375   4.536 -16.279  0.00  0.00    +0.378 C 
ATOM      9  N   UNL     1     -13.105   3.207 -16.095  0.00  0.00    -0.031 NA
ENDROOT
BRANCH   1  10
ATOM     10  C   UNL     1     -11.305   1.728 -16.883  0.00  0.00    +0.067 A 
ATOM     11  C   UNL     1     -12.010   0.568 -16.535  0.00  0.00    +0.016 A 
ATOM     12  C   UNL     1     -11.403  -0.686 -16.624  0.00  0.00    +0.001 A 
ATOM     13  C   UNL     1     -10.085  -0.792 -17.065  0.00  0.00    +0.000 A 
ATOM     14  C   UNL     1      -9.374   0.356 -17.416  0.00  0.00    +0.001 A 
ATOM     15  C   UNL     1      -9.982   1.613 -17.325  0.00  0.00    +0.016 A 
ENDBRANCH   1  10
BRANCH   5  16
ATOM     16  C   UNL     1     -11.962   6.947 -18.690  0.00  0.00    +0.175 C 
BRANCH  16  17
ATOM     17  C   UNL     1     -12.044   6.410 -20.102  0.00  0.00    +0.313 C 
ATOM     18  O   UNL     1     -11.133   6.453 -20.922  0.00  0.00    -0.250 OA
BRANCH  17  19
ATOM     19  O   UNL     1     -13.263   5.839 -20.334  0.00  0.00    -0.465 OA
BRANCH  19  20
ATOM     20  C   UNL     1     -13.245   4.558 -20.976  0.00  0.00    +0.229 C 
ATOM     21  C   UNL     1     -13.825   3.500 -20.059  0.00  0.00    +0.048 C 
ENDBRANCH  19  20
ENDBRANCH  17  19
ENDBRANCH  16  17
ENDBRANCH   5  16
TORSDOF 5
ENDMDL
MODEL 9
REMARK VINA RESULT:      -6.3      4.632      6.166
REMARK  Name = min_compound959.pdb
REMARK  6 active torsions:
REMARK  status: ('A' for Active; 'I' for Inactive)
REMARK    1  A    between atoms: _1  and  _12
REMARK    2  A    between atoms: _6  and  _18
REMARK    3  A    between atoms: _9  and  _11
REMARK    4  A    between atoms: _9  and  _18
REMARK    5  A    between atoms: _11  and  _19
REMARK    6  A    between atoms: _19  and  _20
REMARK                            x       y       z     vdW  Elec       q    Type
REMARK                         _______ _______ _______ _____ _____    ______ ____
ROOT
ATOM      1  C   UNL     1     -13.165   1.950 -17.263  0.00  0.00    +0.338 C 
ATOM      2  N   UNL     1     -14.082   1.980 -16.262  0.00  0.00    -0.132 N 
ATOM      3  H   UNL     1     -14.054   1.551 -15.375  0.00  0.00    +0.323 HD
ATOM      4  N   UNL     1     -15.116   2.814 -16.848  0.00  0.00    -0.119 N 
ATOM      5  C   UNL     1     -15.917   3.755 -16.221  0.00  0.00    +0.069 C 
ATOM      6  C   UNL     1     -16.135   4.837 -17.006  0.00  0.00    +0.070 C 
ATOM      7  S   UNL     1     -15.284   4.790 -18.563  0.00  0.00    -0.045 S 
ATOM      8  C   UNL     1     -14.606   3.260 -18.040  0.00  0.00    +0.378 C 
ATOM      9  N   UNL     1     -13.400   2.682 -18.331  0.00  0.00    -0.031 NA
ENDROOT
BRANCH   1  10
ATOM     10  C   UNL     1     -11.938   1.126 -17.111  0.00  0.00    +0.067 A 
ATOM     11  C   UNL     1     -12.051  -0.155 -16.553  0.00  0.00    +0.016 A 
ATOM     12  C   UNL     1     -10.923  -0.964 -16.397  0.00  0.00    +0.001 A 
ATOM     13  C   UNL     1      -9.672  -0.499 -16.801  0.00  0.00    +0.000 A 
ATOM     14  C   UNL     1      -9.548   0.774 -17.359  0.00  0.00    +0.001 A 
ATOM     15  C   UNL     1     -10.678   1.585 -17.513  0.00  0.00    +0.016 A 
ENDBRANCH   1  10
BRANCH   5  16
ATOM     16  C   UNL     1     -16.430   3.492 -14.839  0.00  0.00    +0.175 C 
BRANCH  16  17
ATOM     17  C   UNL     1     -15.485   3.948 -13.749  0.00  0.00    +0.313 C 
ATOM     18  O   UNL     1     -14.285   4.145 -13.898  0.00  0.00    -0.250 OA
BRANCH  17  19
ATOM     19  O   UNL     1     -16.158   4.141 -12.575  0.00  0.00    -0.465 OA
BRANCH  19  20
ATOM     20  C   UNL     1     -15.366   4.574 -11.462  0.00  0.00    +0.229 C 
ATOM     21  C   UNL     1     -15.913   4.001 -10.170  0.00  0.00    +0.048 C 
ENDBRANCH  19  20
ENDBRANCH  17  19
ENDBRANCH  16  17
ENDBRANCH   5  16
TORSDOF 5
ENDMDL
