MODEL 1
REMARK VINA RESULT:      -6.9      0.000      0.000
REMARK  Name = min_compound973.pdb
REMARK  5 active torsions:
REMARK  status: ('A' for Active; 'I' for Inactive)
REMARK    1  A    between atoms: _1  and  _2
REMARK    2  A    between atoms: _1  and  _12
REMARK    3  A    between atoms: _2  and  _13
REMARK    4  A    between atoms: _11  and  _19
REMARK    5  A    between atoms: _18  and  _20
REMARK                            x       y       z     vdW  Elec       q    Type
REMARK                         _______ _______ _______ _____ _____    ______ ____
ROOT
ATOM      1  C   UNL     1     -12.715   5.551 -17.649  0.00  0.00    +0.115 A 
ATOM      2  C   UNL     1     -12.717   6.943 -17.872  0.00  0.00    +0.141 A 
ATOM      3  C   UNL     1     -13.823   7.737 -17.561  0.00  0.00    +0.049 A 
ATOM      4  C   UNL     1     -14.981   7.166 -17.021  0.00  0.00    +0.033 A 
ATOM      5  C   UNL     1     -14.969   5.783 -16.827  0.00  0.00    +0.088 A 
ATOM      6  N   UNL     1     -15.896   4.903 -16.339  0.00  0.00    -0.257 N 
ATOM      7  N   UNL     1     -15.442   3.642 -16.342  0.00  0.00    -0.067 NA
ATOM      8  N   UNL     1     -14.205   3.665 -16.822  0.00  0.00    -0.128 NA
ATOM      9  H   UNL     1     -16.830   5.084 -15.996  0.00  0.00    +0.191 HD
ATOM     10  C   UNL     1     -13.882   4.965 -17.127  0.00  0.00    +0.138 A 
ENDROOT
BRANCH   1  11
ATOM     11  N   UNL     1     -11.605   4.750 -17.955  0.00  0.00    -0.261 N 
ATOM     12  H   UNL     1     -11.394   4.386 -18.845  0.00  0.00    +0.170 HD
BRANCH  11  13
ATOM     13  N   UNL     1     -10.926   4.571 -16.919  0.00  0.00    -0.266 N 
ATOM     14  H   UNL     1     -10.628   5.287 -16.312  0.00  0.00    +0.170 HD
BRANCH  13  15
ATOM     15  C   UNL     1     -10.645   3.204 -16.744  0.00  0.00    +0.044 A 
ATOM     16  C   UNL     1     -10.089   2.395 -17.740  0.00  0.00    +0.025 A 
ATOM     17  C   UNL     1      -9.782   1.055 -17.475  0.00  0.00    +0.005 A 
ATOM     18  C   UNL     1     -10.045   0.501 -16.216  0.00  0.00    -0.050 A 
ATOM     19  C   UNL     1      -9.649  -0.909 -15.896  0.00  0.00    +0.044 C 
ATOM     20  C   UNL     1     -10.620   1.304 -15.226  0.00  0.00    +0.005 A 
ATOM     21  C   UNL     1     -10.924   2.639 -15.494  0.00  0.00    +0.025 A 
ENDBRANCH  13  15
ENDBRANCH  11  13
ENDBRANCH   1  11
BRANCH   2  22
ATOM     22  O   UNL     1     -11.594   7.526 -18.403  0.00  0.00    -0.505 OA
ATOM     23  H   UNL     1     -11.785   7.851 -19.296  0.00  0.00    +0.292 HD
ENDBRANCH   2  22
TORSDOF 4
ENDMDL
MODEL 2
REMARK VINA RESULT:      -6.7      3.492      5.901
REMARK  Name = min_compound973.pdb
REMARK  5 active torsions:
REMARK  status: ('A' for Active; 'I' for Inactive)
REMARK    1  A    between atoms: _1  and  _2
REMARK    2  A    between atoms: _1  and  _12
REMARK    3  A    between atoms: _2  and  _13
REMARK    4  A    between atoms: _11  and  _19
REMARK    5  A    between atoms: _18  and  _20
REMARK                            x       y       z     vdW  Elec       q    Type
REMARK                         _______ _______ _______ _____ _____    ______ ____
ROOT
ATOM      1  C   UNL     1     -12.532   2.563 -16.788  0.00  0.00    +0.115 A 
ATOM      2  C   UNL     1     -11.409   3.345 -17.130  0.00  0.00    +0.141 A 
ATOM      3  C   UNL     1     -10.154   2.775 -17.348  0.00  0.00    +0.049 A 
ATOM      4  C   UNL     1      -9.966   1.393 -17.222  0.00  0.00    +0.033 A 
ATOM      5  C   UNL     1     -11.084   0.637 -16.860  0.00  0.00    +0.088 A 
ATOM      6  N   UNL     1     -11.274  -0.700 -16.645  0.00  0.00    -0.257 N 
ATOM      7  N   UNL     1     -12.539  -0.980 -16.302  0.00  0.00    -0.067 NA
ATOM      8  N   UNL     1     -13.213   0.165 -16.295  0.00  0.00    -0.128 NA
ATOM      9  H   UNL     1     -10.607  -1.458 -16.710  0.00  0.00    +0.191 HD
ATOM     10  C   UNL     1     -12.349   1.178 -16.637  0.00  0.00    +0.138 A 
ENDROOT
BRANCH   1  11
ATOM     11  N   UNL     1     -13.796   3.131 -16.573  0.00  0.00    -0.261 N 
ATOM     12  H   UNL     1     -14.611   2.915 -17.081  0.00  0.00    +0.170 HD
BRANCH  11  13
ATOM     13  N   UNL     1     -13.726   3.956 -15.634  0.00  0.00    -0.266 N 
ATOM     14  H   UNL     1     -13.031   4.648 -15.547  0.00  0.00    +0.170 HD
BRANCH  13  15
ATOM     15  C   UNL     1     -14.778   3.757 -14.722  0.00  0.00    +0.044 A 
ATOM     16  C   UNL     1     -15.802   2.824 -14.915  0.00  0.00    +0.025 A 
ATOM     17  C   UNL     1     -16.784   2.638 -13.936  0.00  0.00    +0.005 A 
ATOM     18  C   UNL     1     -16.767   3.396 -12.758  0.00  0.00    -0.050 A 
ATOM     19  C   UNL     1     -17.768   3.152 -11.669  0.00  0.00    +0.044 C 
ATOM     20  C   UNL     1     -15.755   4.344 -12.574  0.00  0.00    +0.005 A 
ATOM     21  C   UNL     1     -14.777   4.526 -13.553  0.00  0.00    +0.025 A 
ENDBRANCH  13  15
ENDBRANCH  11  13
ENDBRANCH   1  11
BRANCH   2  22
ATOM     22  O   UNL     1     -11.567   4.702 -17.258  0.00  0.00    -0.505 OA
ATOM     23  H   UNL     1     -12.380   4.893 -17.752  0.00  0.00    +0.292 HD
ENDBRANCH   2  22
TORSDOF 4
ENDMDL
MODEL 3
REMARK VINA RESULT:      -6.7     14.976     17.038
REMARK  Name = min_compound973.pdb
REMARK  5 active torsions:
REMARK  status: ('A' for Active; 'I' for Inactive)
REMARK    1  A    between atoms: _1  and  _2
REMARK    2  A    between atoms: _1  and  _12
REMARK    3  A    between atoms: _2  and  _13
REMARK    4  A    between atoms: _11  and  _19
REMARK    5  A    between atoms: _18  and  _20
REMARK                            x       y       z     vdW  Elec       q    Type
REMARK                         _______ _______ _______ _____ _____    ______ ____
ROOT
ATOM      1  C   UNL     1     -14.599  -3.505  -1.666  0.00  0.00    +0.115 A 
ATOM      2  C   UNL     1     -13.431  -4.250  -1.403  0.00  0.00    +0.141 A 
ATOM      3  C   UNL     1     -13.405  -5.641  -1.520  0.00  0.00    +0.049 A 
ATOM      4  C   UNL     1     -14.553  -6.348  -1.894  0.00  0.00    +0.033 A 
ATOM      5  C   UNL     1     -15.706  -5.595  -2.129  0.00  0.00    +0.088 A 
ATOM      6  N   UNL     1     -16.980  -5.933  -2.497  0.00  0.00    -0.257 N 
ATOM      7  N   UNL     1     -17.775  -4.858  -2.600  0.00  0.00    -0.067 NA
ATOM      8  N   UNL     1     -17.040  -3.790  -2.312  0.00  0.00    -0.128 NA
ATOM      9  H   UNL     1     -17.368  -6.847  -2.689  0.00  0.00    +0.191 HD
ATOM     10  C   UNL     1     -15.764  -4.207  -2.022  0.00  0.00    +0.138 A 
ENDROOT
BRANCH   1  11
ATOM     11  N   UNL     1     -14.629  -2.107  -1.556  0.00  0.00    -0.261 N 
ATOM     12  H   UNL     1     -15.112  -1.600  -0.863  0.00  0.00    +0.170 HD
BRANCH  11  13
ATOM     13  N   UNL     1     -13.946  -1.604  -2.476  0.00  0.00    -0.266 N 
ATOM     14  H   UNL     1     -13.109  -1.985  -2.826  0.00  0.00    +0.170 HD
BRANCH  13  15
ATOM     15  C   UNL     1     -14.542  -0.417  -2.940  0.00  0.00    +0.044 A 
ATOM     16  C   UNL     1     -15.919  -0.267  -3.130  0.00  0.00    +0.025 A 
ATOM     17  C   UNL     1     -16.447   0.964  -3.538  0.00  0.00    +0.005 A 
ATOM     18  C   UNL     1     -15.603   2.055  -3.781  0.00  0.00    -0.050 A 
ATOM     19  C   UNL     1     -16.163   3.398  -4.144  0.00  0.00    +0.044 C 
ATOM     20  C   UNL     1     -14.224   1.898  -3.612  0.00  0.00    +0.005 A 
ATOM     21  C   UNL     1     -13.702   0.671  -3.204  0.00  0.00    +0.025 A 
ENDBRANCH  13  15
ENDBRANCH  11  13
ENDBRANCH   1  11
BRANCH   2  22
ATOM     22  O   UNL     1     -12.293  -3.580  -1.032  0.00  0.00    -0.505 OA
ATOM     23  H   UNL     1     -12.169  -3.651  -0.073  0.00  0.00    +0.292 HD
ENDBRANCH   2  22
TORSDOF 4
ENDMDL
MODEL 4
REMARK VINA RESULT:      -6.7      1.994      2.722
REMARK  Name = min_compound973.pdb
REMARK  5 active torsions:
REMARK  status: ('A' for Active; 'I' for Inactive)
REMARK    1  A    between atoms: _1  and  _2
REMARK    2  A    between atoms: _1  and  _12
REMARK    3  A    between atoms: _2  and  _13
REMARK    4  A    between atoms: _11  and  _19
REMARK    5  A    between atoms: _18  and  _20
REMARK                            x       y       z     vdW  Elec       q    Type
REMARK                         _______ _______ _______ _____ _____    ______ ____
ROOT
ATOM      1  C   UNL     1     -12.482   5.252 -18.522  0.00  0.00    +0.115 A 
ATOM      2  C   UNL     1     -12.138   6.495 -19.092  0.00  0.00    +0.141 A 
ATOM      3  C   UNL     1     -12.413   6.794 -20.427  0.00  0.00    +0.049 A 
ATOM      4  C   UNL     1     -13.038   5.853 -21.255  0.00  0.00    +0.033 A 
ATOM      5  C   UNL     1     -13.352   4.620 -20.679  0.00  0.00    +0.088 A 
ATOM      6  N   UNL     1     -13.946   3.488 -21.168  0.00  0.00    -0.257 N 
ATOM      7  N   UNL     1     -14.039   2.528 -20.238  0.00  0.00    -0.067 NA
ATOM      8  N   UNL     1     -13.519   3.009 -19.114  0.00  0.00    -0.128 NA
ATOM      9  H   UNL     1     -14.301   3.304 -22.097  0.00  0.00    +0.191 HD
ATOM     10  C   UNL     1     -13.091   4.293 -19.350  0.00  0.00    +0.138 A 
ENDROOT
BRANCH   1  11
ATOM     11  N   UNL     1     -12.213   4.950 -17.179  0.00  0.00    -0.261 N 
ATOM     12  H   UNL     1     -12.887   4.873 -16.466  0.00  0.00    +0.170 HD
BRANCH  11  13
ATOM     13  N   UNL     1     -10.980   4.793 -17.029  0.00  0.00    -0.266 N 
ATOM     14  H   UNL     1     -10.307   5.504 -17.136  0.00  0.00    +0.170 HD
BRANCH  13  15
ATOM     15  C   UNL     1     -10.690   3.460 -16.688  0.00  0.00    +0.044 A 
ATOM     16  C   UNL     1     -10.967   2.905 -15.434  0.00  0.00    +0.025 A 
ATOM     17  C   UNL     1     -10.705   1.553 -15.185  0.00  0.00    +0.005 A 
ATOM     18  C   UNL     1     -10.145   0.742 -16.179  0.00  0.00    -0.050 A 
ATOM     19  C   UNL     1      -9.932  -0.725 -15.949  0.00  0.00    +0.044 C 
ATOM     20  C   UNL     1      -9.849   1.301 -17.426  0.00  0.00    +0.005 A 
ATOM     21  C   UNL     1     -10.112   2.649 -17.671  0.00  0.00    +0.025 A 
ENDBRANCH  13  15
ENDBRANCH  11  13
ENDBRANCH   1  11
BRANCH   2  22
ATOM     22  O   UNL     1     -11.522   7.433 -18.302  0.00  0.00    -0.505 OA
ATOM     23  H   UNL     1     -10.948   6.992 -17.657  0.00  0.00    +0.292 HD
ENDBRANCH   2  22
TORSDOF 4
ENDMDL
MODEL 5
REMARK VINA RESULT:      -6.6      1.902      2.939
REMARK  Name = min_compound973.pdb
REMARK  5 active torsions:
REMARK  status: ('A' for Active; 'I' for Inactive)
REMARK    1  A    between atoms: _1  and  _2
REMARK    2  A    between atoms: _1  and  _12
REMARK    3  A    between atoms: _2  and  _13
REMARK    4  A    between atoms: _11  and  _19
REMARK    5  A    between atoms: _18  and  _20
REMARK                            x       y       z     vdW  Elec       q    Type
REMARK                         _______ _______ _______ _____ _____    ______ ____
ROOT
ATOM      1  C   UNL     1     -14.167   5.057 -16.621  0.00  0.00    +0.115 A 
ATOM      2  C   UNL     1     -15.083   5.894 -15.952  0.00  0.00    +0.141 A 
ATOM      3  C   UNL     1     -15.158   7.263 -16.216  0.00  0.00    +0.049 A 
ATOM      4  C   UNL     1     -14.308   7.855 -17.157  0.00  0.00    +0.033 A 
ATOM      5  C   UNL     1     -13.393   7.015 -17.795  0.00  0.00    +0.088 A 
ATOM      6  N   UNL     1     -12.429   7.234 -18.741  0.00  0.00    -0.257 N 
ATOM      7  N   UNL     1     -11.772   6.110 -19.059  0.00  0.00    -0.067 NA
ATOM      8  N   UNL     1     -12.294   5.125 -18.338  0.00  0.00    -0.128 NA
ATOM      9  H   UNL     1     -12.171   8.097 -19.201  0.00  0.00    +0.191 HD
ATOM     10  C   UNL     1     -13.295   5.646 -17.553  0.00  0.00    +0.138 A 
ENDROOT
BRANCH   1  11
ATOM     11  N   UNL     1     -14.092   3.680 -16.363  0.00  0.00    -0.261 N 
ATOM     12  H   UNL     1     -14.626   2.987 -16.813  0.00  0.00    +0.170 HD
BRANCH  11  13
ATOM     13  N   UNL     1     -13.240   3.472 -15.470  0.00  0.00    -0.266 N 
ATOM     14  H   UNL     1     -13.190   3.962 -14.618  0.00  0.00    +0.170 HD
BRANCH  13  15
ATOM     15  C   UNL     1     -12.364   2.441 -15.855  0.00  0.00    +0.044 A 
ATOM     16  C   UNL     1     -11.011   2.405 -15.503  0.00  0.00    +0.025 A 
ATOM     17  C   UNL     1     -10.212   1.316 -15.871  0.00  0.00    +0.005 A 
ATOM     18  C   UNL     1     -10.751   0.258 -16.613  0.00  0.00    -0.050 A 
ATOM     19  C   UNL     1      -9.926  -0.949 -16.947  0.00  0.00    +0.044 C 
ATOM     20  C   UNL     1     -12.099   0.304 -16.984  0.00  0.00    +0.005 A 
ATOM     21  C   UNL     1     -12.892   1.391 -16.614  0.00  0.00    +0.025 A 
ENDBRANCH  13  15
ENDBRANCH  11  13
ENDBRANCH   1  11
BRANCH   2  22
ATOM     22  O   UNL     1     -15.925   5.337 -15.022  0.00  0.00    -0.505 OA
ATOM     23  H   UNL     1     -15.791   5.763 -14.161  0.00  0.00    +0.292 HD
ENDBRANCH   2  22
TORSDOF 4
ENDMDL
MODEL 6
REMARK VINA RESULT:      -6.5     13.510     14.976
REMARK  Name = min_compound973.pdb
REMARK  5 active torsions:
REMARK  status: ('A' for Active; 'I' for Inactive)
REMARK    1  A    between atoms: _1  and  _2
REMARK    2  A    between atoms: _1  and  _12
REMARK    3  A    between atoms: _2  and  _13
REMARK    4  A    between atoms: _11  and  _19
REMARK    5  A    between atoms: _18  and  _20
REMARK                            x       y       z     vdW  Elec       q    Type
REMARK                         _______ _______ _______ _____ _____    ______ ____
ROOT
ATOM      1  C   UNL     1     -14.657  -1.010  -5.165  0.00  0.00    +0.115 A 
ATOM      2  C   UNL     1     -15.183  -0.859  -6.465  0.00  0.00    +0.141 A 
ATOM      3  C   UNL     1     -15.211   0.379  -7.109  0.00  0.00    +0.049 A 
ATOM      4  C   UNL     1     -14.722   1.525  -6.472  0.00  0.00    +0.033 A 
ATOM      5  C   UNL     1     -14.225   1.362  -5.177  0.00  0.00    +0.088 A 
ATOM      6  N   UNL     1     -13.685   2.232  -4.270  0.00  0.00    -0.257 N 
ATOM      7  N   UNL     1     -13.345   1.620  -3.127  0.00  0.00    -0.067 NA
ATOM      8  N   UNL     1     -13.644   0.333  -3.260  0.00  0.00    -0.128 NA
ATOM      9  H   UNL     1     -13.522   3.226  -4.358  0.00  0.00    +0.191 HD
ATOM     10  C   UNL     1     -14.183   0.139  -4.509  0.00  0.00    +0.138 A 
ENDROOT
BRANCH   1  11
ATOM     11  N   UNL     1     -14.622  -2.253  -4.516  0.00  0.00    -0.261 N 
ATOM     12  H   UNL     1     -14.055  -3.015  -4.776  0.00  0.00    +0.170 HD
BRANCH  11  13
ATOM     13  N   UNL     1     -15.423  -2.241  -3.555  0.00  0.00    -0.266 N 
ATOM     14  H   UNL     1     -16.188  -1.627  -3.470  0.00  0.00    +0.170 HD
BRANCH  13  15
ATOM     15  C   UNL     1     -15.078  -3.227  -2.613  0.00  0.00    +0.044 A 
ATOM     16  C   UNL     1     -15.932  -4.268  -2.236  0.00  0.00    +0.025 A 
ATOM     17  C   UNL     1     -15.499  -5.249  -1.336  0.00  0.00    +0.005 A 
ATOM     18  C   UNL     1     -14.212  -5.191  -0.786  0.00  0.00    -0.050 A 
ATOM     19  C   UNL     1     -13.709  -6.276   0.118  0.00  0.00    +0.044 C 
ATOM     20  C   UNL     1     -13.365  -4.138  -1.147  0.00  0.00    +0.005 A 
ATOM     21  C   UNL     1     -13.800  -3.163  -2.045  0.00  0.00    +0.025 A 
ENDBRANCH  13  15
ENDBRANCH  11  13
ENDBRANCH   1  11
BRANCH   2  22
ATOM     22  O   UNL     1     -15.672  -1.969  -7.109  0.00  0.00    -0.505 OA
ATOM     23  H   UNL     1     -16.599  -2.108  -6.864  0.00  0.00    +0.292 HD
ENDBRANCH   2  22
TORSDOF 4
ENDMDL
MODEL 7
REMARK VINA RESULT:      -6.5      2.993      3.767
REMARK  Name = min_compound973.pdb
REMARK  5 active torsions:
REMARK  status: ('A' for Active; 'I' for Inactive)
REMARK    1  A    between atoms: _1  and  _2
REMARK    2  A    between atoms: _1  and  _12
REMARK    3  A    between atoms: _2  and  _13
REMARK    4  A    between atoms: _11  and  _19
REMARK    5  A    between atoms: _18  and  _20
REMARK                            x       y       z     vdW  Elec       q    Type
REMARK                         _______ _______ _______ _____ _____    ______ ____
ROOT
ATOM      1  C   UNL     1     -15.273   3.588 -15.697  0.00  0.00    +0.115 A 
ATOM      2  C   UNL     1     -15.927   2.522 -15.044  0.00  0.00    +0.141 A 
ATOM      3  C   UNL     1     -16.847   2.741 -14.018  0.00  0.00    +0.049 A 
ATOM      4  C   UNL     1     -17.144   4.041 -13.592  0.00  0.00    +0.033 A 
ATOM      5  C   UNL     1     -16.472   5.083 -14.234  0.00  0.00    +0.088 A 
ATOM      6  N   UNL     1     -16.502   6.443 -14.086  0.00  0.00    -0.257 N 
ATOM      7  N   UNL     1     -15.666   7.059 -14.932  0.00  0.00    -0.067 NA
ATOM      8  N   UNL     1     -15.074   6.121 -15.663  0.00  0.00    -0.128 NA
ATOM      9  H   UNL     1     -17.052   7.003 -13.448  0.00  0.00    +0.191 HD
ATOM     10  C   UNL     1     -15.549   4.896 -15.262  0.00  0.00    +0.138 A 
ENDROOT
BRANCH   1  11
ATOM     11  N   UNL     1     -14.352   3.373 -16.733  0.00  0.00    -0.261 N 
ATOM     12  H   UNL     1     -14.576   3.055 -17.637  0.00  0.00    +0.170 HD
BRANCH  11  13
ATOM     13  N   UNL     1     -13.201   3.648 -16.327  0.00  0.00    -0.266 N 
ATOM     14  H   UNL     1     -12.904   4.544 -16.048  0.00  0.00    +0.170 HD
BRANCH  13  15
ATOM     15  C   UNL     1     -12.390   2.499 -16.326  0.00  0.00    +0.044 A 
ATOM     16  C   UNL     1     -12.649   1.370 -17.110  0.00  0.00    +0.025 A 
ATOM     17  C   UNL     1     -11.765   0.285 -17.103  0.00  0.00    +0.005 A 
ATOM     18  C   UNL     1     -10.621   0.305 -16.295  0.00  0.00    -0.050 A 
ATOM     19  C   UNL     1      -9.627  -0.817 -16.337  0.00  0.00    +0.044 C 
ATOM     20  C   UNL     1     -10.373   1.425 -15.495  0.00  0.00    +0.005 A 
ATOM     21  C   UNL     1     -11.256   2.505 -15.506  0.00  0.00    +0.025 A 
ENDBRANCH  13  15
ENDBRANCH  11  13
ENDBRANCH   1  11
BRANCH   2  22
ATOM     22  O   UNL     1     -15.649   1.239 -15.442  0.00  0.00    -0.505 OA
ATOM     23  H   UNL     1     -14.961   0.861 -14.873  0.00  0.00    +0.292 HD
ENDBRANCH   2  22
TORSDOF 4
ENDMDL
MODEL 8
REMARK VINA RESULT:      -6.5      2.964      3.806
REMARK  Name = min_compound973.pdb
REMARK  5 active torsions:
REMARK  status: ('A' for Active; 'I' for Inactive)
REMARK    1  A    between atoms: _1  and  _2
REMARK    2  A    between atoms: _1  and  _12
REMARK    3  A    between atoms: _2  and  _13
REMARK    4  A    between atoms: _11  and  _19
REMARK    5  A    between atoms: _18  and  _20
REMARK                            x       y       z     vdW  Elec       q    Type
REMARK                         _______ _______ _______ _____ _____    ______ ____
ROOT
ATOM      1  C   UNL     1     -15.228   3.543 -15.743  0.00  0.00    +0.115 A 
ATOM      2  C   UNL     1     -15.874   2.481 -15.079  0.00  0.00    +0.141 A 
ATOM      3  C   UNL     1     -16.800   2.704 -14.059  0.00  0.00    +0.049 A 
ATOM      4  C   UNL     1     -17.113   4.007 -13.652  0.00  0.00    +0.033 A 
ATOM      5  C   UNL     1     -16.447   5.046 -14.306  0.00  0.00    +0.088 A 
ATOM      6  N   UNL     1     -16.492   6.408 -14.177  0.00  0.00    -0.257 N 
ATOM      7  N   UNL     1     -15.658   7.021 -15.028  0.00  0.00    -0.067 NA
ATOM      8  N   UNL     1     -15.054   6.079 -15.743  0.00  0.00    -0.128 NA
ATOM      9  H   UNL     1     -17.050   6.972 -13.549  0.00  0.00    +0.191 HD
ATOM     10  C   UNL     1     -15.519   4.855 -15.327  0.00  0.00    +0.138 A 
ENDROOT
BRANCH   1  11
ATOM     11  N   UNL     1     -14.301   3.324 -16.772  0.00  0.00    -0.261 N 
ATOM     12  H   UNL     1     -14.509   2.938 -17.654  0.00  0.00    +0.170 HD
BRANCH  11  13
ATOM     13  N   UNL     1     -13.167   3.694 -16.394  0.00  0.00    -0.266 N 
ATOM     14  H   UNL     1     -12.929   4.620 -16.157  0.00  0.00    +0.170 HD
BRANCH  13  15
ATOM     15  C   UNL     1     -12.279   2.604 -16.355  0.00  0.00    +0.044 A 
ATOM     16  C   UNL     1     -11.140   2.563 -15.545  0.00  0.00    +0.025 A 
ATOM     17  C   UNL     1     -10.334   1.420 -15.514  0.00  0.00    +0.005 A 
ATOM     18  C   UNL     1     -10.644   0.309 -16.308  0.00  0.00    -0.050 A 
ATOM     19  C   UNL     1      -9.832  -0.950 -16.226  0.00  0.00    +0.044 C 
ATOM     20  C   UNL     1     -11.771   0.357 -17.134  0.00  0.00    +0.005 A 
ATOM     21  C   UNL     1     -12.573   1.499 -17.162  0.00  0.00    +0.025 A 
ENDBRANCH  13  15
ENDBRANCH  11  13
ENDBRANCH   1  11
BRANCH   2  22
ATOM     22  O   UNL     1     -15.582   1.194 -15.458  0.00  0.00    -0.505 OA
ATOM     23  H   UNL     1     -14.857   1.199 -16.102  0.00  0.00    +0.292 HD
ENDBRANCH   2  22
TORSDOF 4
ENDMDL
MODEL 9
REMARK VINA RESULT:      -6.5      2.517      3.483
REMARK  Name = min_compound973.pdb
REMARK  5 active torsions:
REMARK  status: ('A' for Active; 'I' for Inactive)
REMARK    1  A    between atoms: _1  and  _2
REMARK    2  A    between atoms: _1  and  _12
REMARK    3  A    between atoms: _2  and  _13
REMARK    4  A    between atoms: _11  and  _19
REMARK    5  A    between atoms: _18  and  _20
REMARK                            x       y       z     vdW  Elec       q    Type
REMARK                         _______ _______ _______ _____ _____    ______ ____
ROOT
ATOM      1  C   UNL     1     -13.438   4.147 -18.746  0.00  0.00    +0.115 A 
ATOM      2  C   UNL     1     -13.748   3.552 -19.986  0.00  0.00    +0.141 A 
ATOM      3  C   UNL     1     -13.413   4.158 -21.198  0.00  0.00    +0.049 A 
ATOM      4  C   UNL     1     -12.761   5.396 -21.220  0.00  0.00    +0.033 A 
ATOM      5  C   UNL     1     -12.482   5.982 -19.983  0.00  0.00    +0.088 A 
ATOM      6  N   UNL     1     -11.877   7.155 -19.623  0.00  0.00    -0.257 N 
ATOM      7  N   UNL     1     -11.832   7.310 -18.293  0.00  0.00    -0.067 NA
ATOM      8  N   UNL     1     -12.396   6.239 -17.747  0.00  0.00    -0.128 NA
ATOM      9  H   UNL     1     -11.483   7.877 -20.212  0.00  0.00    +0.191 HD
ATOM     10  C   UNL     1     -12.803   5.401 -18.757  0.00  0.00    +0.138 A 
ENDROOT
BRANCH   1  11
ATOM     11  N   UNL     1     -13.768   3.540 -17.526  0.00  0.00    -0.261 N 
ATOM     12  H   UNL     1     -14.610   3.067 -17.334  0.00  0.00    +0.170 HD
BRANCH  11  13
ATOM     13  N   UNL     1     -12.825   3.693 -16.718  0.00  0.00    -0.266 N 
ATOM     14  H   UNL     1     -12.591   4.545 -16.284  0.00  0.00    +0.170 HD
BRANCH  13  15
ATOM     15  C   UNL     1     -12.145   2.478 -16.518  0.00  0.00    +0.044 A 
ATOM     16  C   UNL     1     -12.546   1.265 -17.086  0.00  0.00    +0.025 A 
ATOM     17  C   UNL     1     -11.785   0.106 -16.892  0.00  0.00    +0.005 A 
ATOM     18  C   UNL     1     -10.624   0.141 -16.109  0.00  0.00    -0.050 A 
ATOM     19  C   UNL     1      -9.760  -1.076 -15.957  0.00  0.00    +0.044 C 
ATOM     20  C   UNL     1     -10.234   1.349 -15.523  0.00  0.00    +0.005 A 
ATOM     21  C   UNL     1     -10.995   2.502 -15.721  0.00  0.00    +0.025 A 
ENDBRANCH  13  15
ENDBRANCH  11  13
ENDBRANCH   1  11
BRANCH   2  22
ATOM     22  O   UNL     1     -14.390   2.339 -19.990  0.00  0.00    -0.505 OA
ATOM     23  H   UNL     1     -13.977   1.752 -20.643  0.00  0.00    +0.292 HD
ENDBRANCH   2  22
TORSDOF 4
ENDMDL
