MODEL 1
REMARK VINA RESULT:      -8.6      0.000      0.000
REMARK  Name = min_compound925.pdb
REMARK  6 active torsions:
REMARK  status: ('A' for Active; 'I' for Inactive)
REMARK    1  A    between atoms: _1  and  _13
REMARK    2  A    between atoms: _6  and  _7
REMARK    3  A    between atoms: _9  and  _14
REMARK    4  A    between atoms: _12  and  _21
REMARK    5  A    between atoms: _14  and  _15
REMARK    6  A    between atoms: _21  and  _22
REMARK                            x       y       z     vdW  Elec       q    Type
REMARK                         _______ _______ _______ _____ _____    ______ ____
ROOT
ATOM      1  C   UNL     1     -12.886   3.987 -17.168  0.00  0.00    +0.127 C 
ATOM      2  N   UNL     1     -14.072   4.404 -16.319  0.00  0.00    -0.321 N 
ATOM      3  C   UNL     1     -14.656   5.687 -16.572  0.00  0.00    +0.076 C 
ATOM      4  C   UNL     1     -14.040   6.747 -17.147  0.00  0.00    -0.020 C 
ATOM      5  C   UNL     1     -12.642   6.512 -17.517  0.00  0.00    +0.004 C 
ATOM      6  C   UNL     1     -12.098   5.265 -17.500  0.00  0.00    +0.000 C 
ENDROOT
BRANCH   1  11
ATOM      7  C   UNL     1     -10.422   0.262 -16.167  0.00  0.00    -0.050 A 
ATOM      8  C   UNL     1      -9.615  -0.990 -16.000  0.00  0.00    +0.044 C 
ATOM      9  C   UNL     1     -11.337   0.350 -17.233  0.00  0.00    +0.004 A 
ATOM     10  C   UNL     1     -12.115   1.524 -17.510  0.00  0.00    +0.006 A 
ATOM     11  C   UNL     1     -12.064   2.704 -16.729  0.00  0.00    -0.023 A 
ATOM     12  C   UNL     1     -11.170   2.617 -15.646  0.00  0.00    +0.006 A 
ATOM     13  C   UNL     1     -10.366   1.437 -15.384  0.00  0.00    +0.004 A 
ENDBRANCH   1  11
BRANCH   2  14
ATOM     14  C   UNL     1     -14.863   3.275 -15.778  0.00  0.00    +0.140 C 
BRANCH  14  15
ATOM     15  C   UNL     1     -15.455   3.466 -14.394  0.00  0.00    -0.030 A 
ATOM     16  C   UNL     1     -16.613   2.764 -14.021  0.00  0.00    +0.005 A 
ATOM     17  C   UNL     1     -17.161   2.916 -12.747  0.00  0.00    +0.000 A 
ATOM     18  C   UNL     1     -16.559   3.774 -11.829  0.00  0.00    +0.000 A 
ATOM     19  C   UNL     1     -15.405   4.471 -12.182  0.00  0.00    +0.000 A 
ATOM     20  C   UNL     1     -14.849   4.312 -13.453  0.00  0.00    +0.005 A 
ENDBRANCH  14  15
ENDBRANCH   2  14
BRANCH   4  21
ATOM     21  C   UNL     1     -14.740   8.059 -17.344  0.00  0.00    +0.114 C 
BRANCH  21  22
ATOM     22  N   UNL     1     -15.439   9.371 -17.540  0.00  0.00    -0.326 NA
ATOM     23  H   UNL     1     -16.427   9.204 -17.733  0.00  0.00    +0.119 HD
ATOM     24  H   UNL     1     -15.348   9.935 -16.695  0.00  0.00    +0.119 HD
ENDBRANCH  21  22
ENDBRANCH   4  21
TORSDOF 5
ENDMDL
MODEL 2
REMARK VINA RESULT:      -7.5      2.161      5.850
REMARK  Name = min_compound925.pdb
REMARK  6 active torsions:
REMARK  status: ('A' for Active; 'I' for Inactive)
REMARK    1  A    between atoms: _1  and  _13
REMARK    2  A    between atoms: _6  and  _7
REMARK    3  A    between atoms: _9  and  _14
REMARK    4  A    between atoms: _12  and  _21
REMARK    5  A    between atoms: _14  and  _15
REMARK    6  A    between atoms: _21  and  _22
REMARK                            x       y       z     vdW  Elec       q    Type
REMARK                         _______ _______ _______ _____ _____    ______ ____
ROOT
ATOM      1  C   UNL     1     -14.926   4.102 -16.766  0.00  0.00    +0.127 C 
ATOM      2  N   UNL     1     -13.731   3.246 -17.145  0.00  0.00    -0.321 N 
ATOM      3  C   UNL     1     -13.357   3.198 -18.527  0.00  0.00    +0.076 C 
ATOM      4  C   UNL     1     -14.165   3.446 -19.584  0.00  0.00    -0.020 C 
ATOM      5  C   UNL     1     -15.547   3.781 -19.230  0.00  0.00    +0.004 C 
ATOM      6  C   UNL     1     -15.910   4.049 -17.946  0.00  0.00    +0.000 C 
ENDROOT
BRANCH   1  11
ATOM      7  C   UNL     1     -16.563   3.409 -12.549  0.00  0.00    -0.050 A 
ATOM      8  C   UNL     1     -17.102   3.022 -11.204  0.00  0.00    +0.044 C 
ATOM      9  C   UNL     1     -16.883   2.618 -13.668  0.00  0.00    +0.004 A 
ATOM     10  C   UNL     1     -16.373   2.872 -14.986  0.00  0.00    +0.006 A 
ATOM     11  C   UNL     1     -15.518   3.956 -15.303  0.00  0.00    -0.023 A 
ATOM     12  C   UNL     1     -15.212   4.767 -14.195  0.00  0.00    +0.006 A 
ATOM     13  C   UNL     1     -15.710   4.492 -12.859  0.00  0.00    +0.004 A 
ENDBRANCH   1  11
BRANCH   2  14
ATOM     14  C   UNL     1     -12.745   3.060 -16.057  0.00  0.00    +0.140 C 
BRANCH  14  15
ATOM     15  C   UNL     1     -11.972   1.753 -16.062  0.00  0.00    -0.030 A 
ATOM     16  C   UNL     1     -12.579   0.579 -16.537  0.00  0.00    +0.005 A 
ATOM     17  C   UNL     1     -11.877  -0.627 -16.564  0.00  0.00    +0.000 A 
ATOM     18  C   UNL     1     -10.559  -0.674 -16.114  0.00  0.00    +0.000 A 
ATOM     19  C   UNL     1      -9.941   0.485 -15.648  0.00  0.00    +0.000 A 
ATOM     20  C   UNL     1     -10.638   1.695 -15.632  0.00  0.00    +0.005 A 
ENDBRANCH  14  15
ENDBRANCH   2  14
BRANCH   4  21
ATOM     21  C   UNL     1     -13.674   3.343 -20.998  0.00  0.00    +0.114 C 
BRANCH  21  22
ATOM     22  N   UNL     1     -13.184   3.240 -22.412  0.00  0.00    -0.326 NA
ATOM     23  H   UNL     1     -12.166   3.312 -22.425  0.00  0.00    +0.119 HD
ATOM     24  H   UNL     1     -13.466   2.341 -22.805  0.00  0.00    +0.119 HD
ENDBRANCH  21  22
ENDBRANCH   4  21
TORSDOF 5
ENDMDL
MODEL 3
REMARK VINA RESULT:      -7.5      1.094      1.987
REMARK  Name = min_compound925.pdb
REMARK  6 active torsions:
REMARK  status: ('A' for Active; 'I' for Inactive)
REMARK    1  A    between atoms: _1  and  _13
REMARK    2  A    between atoms: _6  and  _7
REMARK    3  A    between atoms: _9  and  _14
REMARK    4  A    between atoms: _12  and  _21
REMARK    5  A    between atoms: _14  and  _15
REMARK    6  A    between atoms: _21  and  _22
REMARK                            x       y       z     vdW  Elec       q    Type
REMARK                         _______ _______ _______ _____ _____    ______ ____
ROOT
ATOM      1  C   UNL     1     -14.036   4.803 -16.859  0.00  0.00    +0.127 C 
ATOM      2  N   UNL     1     -15.062   5.050 -15.769  0.00  0.00    -0.321 N 
ATOM      3  C   UNL     1     -15.814   6.268 -15.824  0.00  0.00    +0.076 C 
ATOM      4  C   UNL     1     -15.440   7.412 -16.443  0.00  0.00    -0.020 C 
ATOM      5  C   UNL     1     -14.130   7.351 -17.095  0.00  0.00    +0.004 C 
ATOM      6  C   UNL     1     -13.468   6.174 -17.261  0.00  0.00    +0.000 C 
ENDROOT
BRANCH   1  11
ATOM      7  C   UNL     1     -11.099   1.392 -16.034  0.00  0.00    -0.050 A 
ATOM      8  C   UNL     1     -10.113   0.341 -15.617  0.00  0.00    +0.044 C 
ATOM      9  C   UNL     1     -10.979   2.691 -15.509  0.00  0.00    +0.004 A 
ATOM     10  C   UNL     1     -11.902   3.750 -15.802  0.00  0.00    +0.006 A 
ATOM     11  C   UNL     1     -13.013   3.606 -16.670  0.00  0.00    -0.023 A 
ATOM     12  C   UNL     1     -13.128   2.317 -17.220  0.00  0.00    +0.006 A 
ATOM     13  C   UNL     1     -12.206   1.242 -16.900  0.00  0.00    +0.004 A 
ENDBRANCH   1  11
BRANCH   2  14
ATOM     14  C   UNL     1     -15.605   3.818 -15.153  0.00  0.00    +0.140 C 
BRANCH  14  15
ATOM     15  C   UNL     1     -15.799   3.844 -13.648  0.00  0.00    -0.030 A 
ATOM     16  C   UNL     1     -14.911   4.569 -12.836  0.00  0.00    +0.005 A 
ATOM     17  C   UNL     1     -15.085   4.616 -11.452  0.00  0.00    +0.000 A 
ATOM     18  C   UNL     1     -16.149   3.938 -10.862  0.00  0.00    +0.000 A 
ATOM     19  C   UNL     1     -17.043   3.222 -11.656  0.00  0.00    +0.000 A 
ATOM     20  C   UNL     1     -16.878   3.182 -13.042  0.00  0.00    +0.005 A 
ENDBRANCH  14  15
ENDBRANCH   2  14
BRANCH   4  21
ATOM     21  C   UNL     1     -16.297   8.643 -16.417  0.00  0.00    +0.114 C 
BRANCH  21  22
ATOM     22  N   UNL     1     -17.154   9.874 -16.392  0.00  0.00    -0.326 NA
ATOM     23  H   UNL     1     -17.779   9.870 -17.198  0.00  0.00    +0.119 HD
ATOM     24  H   UNL     1     -17.705   9.886 -15.534  0.00  0.00    +0.119 HD
ENDBRANCH  21  22
ENDBRANCH   4  21
TORSDOF 5
ENDMDL
MODEL 4
REMARK VINA RESULT:      -7.5      2.379      4.780
REMARK  Name = min_compound925.pdb
REMARK  6 active torsions:
REMARK  status: ('A' for Active; 'I' for Inactive)
REMARK    1  A    between atoms: _1  and  _13
REMARK    2  A    between atoms: _6  and  _7
REMARK    3  A    between atoms: _9  and  _14
REMARK    4  A    between atoms: _12  and  _21
REMARK    5  A    between atoms: _14  and  _15
REMARK    6  A    between atoms: _21  and  _22
REMARK                            x       y       z     vdW  Elec       q    Type
REMARK                         _______ _______ _______ _____ _____    ______ ____
ROOT
ATOM      1  C   UNL     1     -14.050   2.832 -16.378  0.00  0.00    +0.127 C 
ATOM      2  N   UNL     1     -14.545   3.131 -17.780  0.00  0.00    -0.321 N 
ATOM      3  C   UNL     1     -15.822   3.766 -17.916  0.00  0.00    +0.076 C 
ATOM      4  C   UNL     1     -16.829   3.738 -17.013  0.00  0.00    -0.020 C 
ATOM      5  C   UNL     1     -16.542   2.963 -15.803  0.00  0.00    +0.004 C 
ATOM      6  C   UNL     1     -15.287   2.518 -15.521  0.00  0.00    +0.000 C 
ENDROOT
BRANCH   1  11
ATOM      7  C   UNL     1     -10.428   0.043 -16.172  0.00  0.00    -0.050 A 
ATOM      8  C   UNL     1      -9.304  -0.949 -16.234  0.00  0.00    +0.044 C 
ATOM      9  C   UNL     1     -11.707  -0.344 -16.609  0.00  0.00    +0.004 A 
ATOM     10  C   UNL     1     -12.833   0.545 -16.641  0.00  0.00    +0.006 A 
ATOM     11  C   UNL     1     -12.781   1.895 -16.215  0.00  0.00    -0.023 A 
ATOM     12  C   UNL     1     -11.511   2.285 -15.753  0.00  0.00    +0.006 A 
ATOM     13  C   UNL     1     -10.368   1.388 -15.745  0.00  0.00    +0.004 A 
ENDBRANCH   1  11
BRANCH   2  14
ATOM     14  C   UNL     1     -13.470   3.308 -18.782  0.00  0.00    +0.140 C 
BRANCH  14  15
ATOM     15  C   UNL     1     -12.861   4.695 -18.883  0.00  0.00    -0.030 A 
ATOM     16  C   UNL     1     -12.805   5.350 -20.125  0.00  0.00    +0.005 A 
ATOM     17  C   UNL     1     -12.265   6.632 -20.232  0.00  0.00    +0.000 A 
ATOM     18  C   UNL     1     -11.771   7.275 -19.098  0.00  0.00    +0.000 A 
ATOM     19  C   UNL     1     -11.827   6.641 -17.859  0.00  0.00    +0.000 A 
ATOM     20  C   UNL     1     -12.379   5.363 -17.748  0.00  0.00    +0.005 A 
ENDBRANCH  14  15
ENDBRANCH   2  14
BRANCH   4  21
ATOM     21  C   UNL     1     -18.141   4.420 -17.267  0.00  0.00    +0.114 C 
BRANCH  21  22
ATOM     22  N   UNL     1     -19.452   5.102 -17.521  0.00  0.00    -0.326 NA
ATOM     23  H   UNL     1     -20.093   4.450 -17.974  0.00  0.00    +0.119 HD
ATOM     24  H   UNL     1     -19.852   5.412 -16.635  0.00  0.00    +0.119 HD
ENDBRANCH  21  22
ENDBRANCH   4  21
TORSDOF 5
ENDMDL
MODEL 5
REMARK VINA RESULT:      -7.4      1.180      1.513
REMARK  Name = min_compound925.pdb
REMARK  6 active torsions:
REMARK  status: ('A' for Active; 'I' for Inactive)
REMARK    1  A    between atoms: _1  and  _13
REMARK    2  A    between atoms: _6  and  _7
REMARK    3  A    between atoms: _9  and  _14
REMARK    4  A    between atoms: _12  and  _21
REMARK    5  A    between atoms: _14  and  _15
REMARK    6  A    between atoms: _21  and  _22
REMARK                            x       y       z     vdW  Elec       q    Type
REMARK                         _______ _______ _______ _____ _____    ______ ____
ROOT
ATOM      1  C   UNL     1     -13.384   3.193 -17.618  0.00  0.00    +0.127 C 
ATOM      2  N   UNL     1     -13.529   4.270 -16.560  0.00  0.00    -0.321 N 
ATOM      3  C   UNL     1     -14.245   5.459 -16.912  0.00  0.00    +0.076 C 
ATOM      4  C   UNL     1     -14.426   5.943 -18.163  0.00  0.00    -0.020 C 
ATOM      5  C   UNL     1     -13.803   5.145 -19.222  0.00  0.00    +0.004 C 
ATOM      6  C   UNL     1     -13.297   3.905 -18.978  0.00  0.00    +0.000 C 
ENDROOT
BRANCH   1  11
ATOM      7  C   UNL     1     -10.333  -0.076 -16.643  0.00  0.00    -0.050 A 
ATOM      8  C   UNL     1      -9.236  -1.028 -16.267  0.00  0.00    +0.044 C 
ATOM      9  C   UNL     1     -10.000   1.237 -17.022  0.00  0.00    +0.004 A 
ATOM     10  C   UNL     1     -10.977   2.237 -17.345  0.00  0.00    +0.006 A 
ATOM     11  C   UNL     1     -12.374   2.001 -17.342  0.00  0.00    -0.023 A 
ATOM     12  C   UNL     1     -12.716   0.684 -16.988  0.00  0.00    +0.006 A 
ATOM     13  C   UNL     1     -11.725  -0.318 -16.637  0.00  0.00    +0.004 A 
ENDBRANCH   1  11
BRANCH   2  14
ATOM     14  C   UNL     1     -13.475   3.769 -15.168  0.00  0.00    +0.140 C 
BRANCH  14  15
ATOM     15  C   UNL     1     -14.804   3.635 -14.447  0.00  0.00    -0.030 A 
ATOM     16  C   UNL     1     -15.755   2.702 -14.892  0.00  0.00    +0.005 A 
ATOM     17  C   UNL     1     -16.975   2.554 -14.229  0.00  0.00    +0.000 A 
ATOM     18  C   UNL     1     -17.259   3.339 -13.114  0.00  0.00    +0.000 A 
ATOM     19  C   UNL     1     -16.321   4.262 -12.655  0.00  0.00    +0.000 A 
ATOM     20  C   UNL     1     -15.096   4.404 -13.310  0.00  0.00    +0.005 A 
ENDBRANCH  14  15
ENDBRANCH   2  14
BRANCH   4  21
ATOM     21  C   UNL     1     -15.176   7.217 -18.420  0.00  0.00    +0.114 C 
BRANCH  21  22
ATOM     22  N   UNL     1     -15.925   8.491 -18.676  0.00  0.00    -0.326 NA
ATOM     23  H   UNL     1     -15.741   8.808 -19.628  0.00  0.00    +0.119 HD
ATOM     24  H   UNL     1     -16.925   8.326 -18.560  0.00  0.00    +0.119 HD
ENDBRANCH  21  22
ENDBRANCH   4  21
TORSDOF 5
ENDMDL
MODEL 6
REMARK VINA RESULT:      -7.4      1.639      5.741
REMARK  Name = min_compound925.pdb
REMARK  6 active torsions:
REMARK  status: ('A' for Active; 'I' for Inactive)
REMARK    1  A    between atoms: _1  and  _13
REMARK    2  A    between atoms: _6  and  _7
REMARK    3  A    between atoms: _9  and  _14
REMARK    4  A    between atoms: _12  and  _21
REMARK    5  A    between atoms: _14  and  _15
REMARK    6  A    between atoms: _21  and  _22
REMARK                            x       y       z     vdW  Elec       q    Type
REMARK                         _______ _______ _______ _____ _____    ______ ____
ROOT
ATOM      1  C   UNL     1     -14.193   4.327 -15.746  0.00  0.00    +0.127 C 
ATOM      2  N   UNL     1     -14.030   3.346 -16.892  0.00  0.00    -0.321 N 
ATOM      3  C   UNL     1     -13.425   3.825 -18.099  0.00  0.00    +0.076 C 
ATOM      4  C   UNL     1     -13.383   5.111 -18.517  0.00  0.00    -0.020 C 
ATOM      5  C   UNL     1     -14.040   6.066 -17.620  0.00  0.00    +0.004 C 
ATOM      6  C   UNL     1     -14.442   5.711 -16.369  0.00  0.00    +0.000 C 
ENDROOT
BRANCH   1  11
ATOM      7  C   UNL     1     -16.841   3.365 -12.140  0.00  0.00    -0.050 A 
ATOM      8  C   UNL     1     -17.683   3.204 -10.909  0.00  0.00    +0.044 C 
ATOM      9  C   UNL     1     -15.762   4.267 -12.118  0.00  0.00    +0.004 A 
ATOM     10  C   UNL     1     -14.932   4.533 -13.258  0.00  0.00    +0.006 A 
ATOM     11  C   UNL     1     -15.095   3.899 -14.514  0.00  0.00    -0.023 A 
ATOM     12  C   UNL     1     -16.157   2.977 -14.539  0.00  0.00    +0.006 A 
ATOM     13  C   UNL     1     -17.010   2.729 -13.390  0.00  0.00    +0.004 A 
ENDBRANCH   1  11
BRANCH   2  14
ATOM     14  C   UNL     1     -13.932   1.930 -16.472  0.00  0.00    +0.140 C 
BRANCH  14  15
ATOM     15  C   UNL     1     -12.533   1.354 -16.355  0.00  0.00    -0.030 A 
ATOM     16  C   UNL     1     -11.497   2.129 -15.808  0.00  0.00    +0.005 A 
ATOM     17  C   UNL     1     -10.208   1.609 -15.678  0.00  0.00    +0.000 A 
ATOM     18  C   UNL     1      -9.938   0.307 -16.096  0.00  0.00    +0.000 A 
ATOM     19  C   UNL     1     -10.958  -0.476 -16.633  0.00  0.00    +0.000 A 
ATOM     20  C   UNL     1     -12.251   0.039 -16.753  0.00  0.00    +0.005 A 
ENDBRANCH  14  15
ENDBRANCH   2  14
BRANCH   4  21
ATOM     21  C   UNL     1     -12.743   5.502 -19.816  0.00  0.00    +0.114 C 
BRANCH  21  22
ATOM     22  N   UNL     1     -12.103   5.892 -21.116  0.00  0.00    -0.326 NA
ATOM     23  H   UNL     1     -11.640   6.794 -21.009  0.00  0.00    +0.119 HD
ATOM     24  H   UNL     1     -11.417   5.186 -21.382  0.00  0.00    +0.119 HD
ENDBRANCH  21  22
ENDBRANCH   4  21
TORSDOF 5
ENDMDL
MODEL 7
REMARK VINA RESULT:      -7.3      1.920      5.057
REMARK  Name = min_compound925.pdb
REMARK  6 active torsions:
REMARK  status: ('A' for Active; 'I' for Inactive)
REMARK    1  A    between atoms: _1  and  _13
REMARK    2  A    between atoms: _6  and  _7
REMARK    3  A    between atoms: _9  and  _14
REMARK    4  A    between atoms: _12  and  _21
REMARK    5  A    between atoms: _14  and  _15
REMARK    6  A    between atoms: _21  and  _22
REMARK                            x       y       z     vdW  Elec       q    Type
REMARK                         _______ _______ _______ _____ _____    ______ ____
ROOT
ATOM      1  C   UNL     1     -13.405   3.782 -15.718  0.00  0.00    +0.127 C 
ATOM      2  N   UNL     1     -13.501   4.913 -16.724  0.00  0.00    -0.321 N 
ATOM      3  C   UNL     1     -14.533   5.888 -16.535  0.00  0.00    +0.076 C 
ATOM      4  C   UNL     1     -15.690   5.707 -15.856  0.00  0.00    -0.020 C 
ATOM      5  C   UNL     1     -15.860   4.367 -15.288  0.00  0.00    +0.004 C 
ATOM      6  C   UNL     1     -14.836   3.472 -15.250  0.00  0.00    +0.000 C 
ENDROOT
BRANCH   1  11
ATOM      7  C   UNL     1     -10.624   0.215 -16.416  0.00  0.00    -0.050 A 
ATOM      8  C   UNL     1      -9.656  -0.928 -16.493  0.00  0.00    +0.044 C 
ATOM      9  C   UNL     1     -10.306   1.329 -15.618  0.00  0.00    +0.004 A 
ATOM     10  C   UNL     1     -11.188   2.446 -15.434  0.00  0.00    +0.006 A 
ATOM     11  C   UNL     1     -12.456   2.557 -16.056  0.00  0.00    -0.023 A 
ATOM     12  C   UNL     1     -12.773   1.458 -16.875  0.00  0.00    +0.006 A 
ATOM     13  C   UNL     1     -11.888   0.318 -17.038  0.00  0.00    +0.004 A 
ENDBRANCH   1  11
BRANCH   2  14
ATOM     14  C   UNL     1     -12.224   5.242 -17.396  0.00  0.00    +0.140 C 
BRANCH  14  15
ATOM     15  C   UNL     1     -12.310   5.616 -18.865  0.00  0.00    -0.030 A 
ATOM     16  C   UNL     1     -11.676   6.779 -19.333  0.00  0.00    +0.005 A 
ATOM     17  C   UNL     1     -11.732   7.128 -20.683  0.00  0.00    +0.000 A 
ATOM     18  C   UNL     1     -12.423   6.319 -21.583  0.00  0.00    +0.000 A 
ATOM     19  C   UNL     1     -13.049   5.157 -21.134  0.00  0.00    +0.000 A 
ATOM     20  C   UNL     1     -12.985   4.800 -19.785  0.00  0.00    +0.005 A 
ENDBRANCH  14  15
ENDBRANCH   2  14
BRANCH   4  21
ATOM     21  C   UNL     1     -16.719   6.793 -15.739  0.00  0.00    +0.114 C 
BRANCH  21  22
ATOM     22  N   UNL     1     -17.747   7.878 -15.622  0.00  0.00    -0.326 NA
ATOM     23  H   UNL     1     -17.468   8.534 -14.892  0.00  0.00    +0.119 HD
ATOM     24  H   UNL     1     -17.823   8.372 -16.512  0.00  0.00    +0.119 HD
ENDBRANCH  21  22
ENDBRANCH   4  21
TORSDOF 5
ENDMDL
MODEL 8
REMARK VINA RESULT:      -7.1      2.374      4.856
REMARK  Name = min_compound925.pdb
REMARK  6 active torsions:
REMARK  status: ('A' for Active; 'I' for Inactive)
REMARK    1  A    between atoms: _1  and  _13
REMARK    2  A    between atoms: _6  and  _7
REMARK    3  A    between atoms: _9  and  _14
REMARK    4  A    between atoms: _12  and  _21
REMARK    5  A    between atoms: _14  and  _15
REMARK    6  A    between atoms: _21  and  _22
REMARK                            x       y       z     vdW  Elec       q    Type
REMARK                         _______ _______ _______ _____ _____    ______ ____
ROOT
ATOM      1  C   UNL     1     -13.347   3.686 -16.002  0.00  0.00    +0.127 C 
ATOM      2  N   UNL     1     -13.863   4.327 -17.276  0.00  0.00    -0.321 N 
ATOM      3  C   UNL     1     -14.893   5.316 -17.156  0.00  0.00    +0.076 C 
ATOM      4  C   UNL     1     -15.767   5.440 -16.130  0.00  0.00    -0.020 C 
ATOM      5  C   UNL     1     -15.611   4.438 -15.072  0.00  0.00    +0.004 C 
ATOM      6  C   UNL     1     -14.530   3.614 -15.022  0.00  0.00    +0.000 C 
ENDROOT
BRANCH   1  11
ATOM      7  C   UNL     1     -10.585   0.038 -16.096  0.00  0.00    -0.050 A 
ATOM      8  C   UNL     1      -9.610  -1.097 -15.992  0.00  0.00    +0.044 C 
ATOM      9  C   UNL     1     -10.214   1.306 -15.613  0.00  0.00    +0.004 A 
ATOM     10  C   UNL     1     -11.093   2.440 -15.616  0.00  0.00    +0.006 A 
ATOM     11  C   UNL     1     -12.414   2.410 -16.129  0.00  0.00    -0.023 A 
ATOM     12  C   UNL     1     -12.786   1.152 -16.637  0.00  0.00    +0.006 A 
ATOM     13  C   UNL     1     -11.902   0.001 -16.608  0.00  0.00    +0.004 A 
ENDBRANCH   1  11
BRANCH   2  14
ATOM     14  C   UNL     1     -12.890   4.339 -18.391  0.00  0.00    +0.140 C 
BRANCH  14  15
ATOM     15  C   UNL     1     -13.353   3.726 -19.700  0.00  0.00    -0.030 A 
ATOM     16  C   UNL     1     -13.517   2.335 -19.806  0.00  0.00    +0.005 A 
ATOM     17  C   UNL     1     -13.958   1.757 -20.998  0.00  0.00    +0.000 A 
ATOM     18  C   UNL     1     -14.239   2.563 -22.099  0.00  0.00    +0.000 A 
ATOM     19  C   UNL     1     -14.089   3.946 -22.005  0.00  0.00    +0.000 A 
ATOM     20  C   UNL     1     -13.659   4.527 -20.811  0.00  0.00    +0.005 A 
ENDBRANCH  14  15
ENDBRANCH   2  14
BRANCH   4  21
ATOM     21  C   UNL     1     -16.827   6.502 -16.116  0.00  0.00    +0.114 C 
BRANCH  21  22
ATOM     22  N   UNL     1     -17.886   7.563 -16.102  0.00  0.00    -0.326 NA
ATOM     23  H   UNL     1     -18.209   7.709 -15.145  0.00  0.00    +0.119 HD
ATOM     24  H   UNL     1     -17.500   8.434 -16.467  0.00  0.00    +0.119 HD
ENDBRANCH  21  22
ENDBRANCH   4  21
TORSDOF 5
ENDMDL
MODEL 9
REMARK VINA RESULT:      -7.1      5.686      9.187
REMARK  Name = min_compound925.pdb
REMARK  6 active torsions:
REMARK  status: ('A' for Active; 'I' for Inactive)
REMARK    1  A    between atoms: _1  and  _13
REMARK    2  A    between atoms: _6  and  _7
REMARK    3  A    between atoms: _9  and  _14
REMARK    4  A    between atoms: _12  and  _21
REMARK    5  A    between atoms: _14  and  _15
REMARK    6  A    between atoms: _21  and  _22
REMARK                            x       y       z     vdW  Elec       q    Type
REMARK                         _______ _______ _______ _____ _____    ______ ____
ROOT
ATOM      1  C   UNL     1     -17.380   4.314  -9.017  0.00  0.00    +0.127 C 
ATOM      2  N   UNL     1     -16.928   3.253  -8.032  0.00  0.00    -0.321 N 
ATOM      3  C   UNL     1     -17.267   3.436  -6.652  0.00  0.00    +0.076 C 
ATOM      4  C   UNL     1     -17.541   4.614  -6.045  0.00  0.00    -0.020 C 
ATOM      5  C   UNL     1     -17.460   5.785  -6.922  0.00  0.00    +0.004 C 
ATOM      6  C   UNL     1     -17.355   5.660  -8.273  0.00  0.00    +0.000 C 
ENDROOT
BRANCH   1  11
ATOM      7  C   UNL     1     -15.429   4.115 -13.152  0.00  0.00    -0.050 A 
ATOM      8  C   UNL     1     -14.646   4.057 -14.430  0.00  0.00    +0.044 C 
ATOM      9  C   UNL     1     -14.891   4.803 -12.049  0.00  0.00    +0.004 A 
ATOM     10  C   UNL     1     -15.536   4.870 -10.769  0.00  0.00    +0.006 A 
ATOM     11  C   UNL     1     -16.790   4.273 -10.488  0.00  0.00    -0.023 A 
ATOM     12  C   UNL     1     -17.347   3.602 -11.592  0.00  0.00    +0.006 A 
ATOM     13  C   UNL     1     -16.680   3.516 -12.878  0.00  0.00    +0.004 A 
ENDBRANCH   1  11
BRANCH   2  14
ATOM     14  C   UNL     1     -16.747   1.909  -8.624  0.00  0.00    +0.140 C 
BRANCH  14  15
ATOM     15  C   UNL     1     -15.992   0.896  -7.783  0.00  0.00    -0.030 A 
ATOM     16  C   UNL     1     -16.548  -0.371  -7.539  0.00  0.00    +0.005 A 
ATOM     17  C   UNL     1     -15.860  -1.320  -6.782  0.00  0.00    +0.000 A 
ATOM     18  C   UNL     1     -14.606  -1.013  -6.257  0.00  0.00    +0.000 A 
ATOM     19  C   UNL     1     -14.037   0.236  -6.499  0.00  0.00    +0.000 A 
ATOM     20  C   UNL     1     -14.720   1.183  -7.266  0.00  0.00    +0.005 A 
ENDBRANCH  14  15
ENDBRANCH   2  14
BRANCH   4  21
ATOM     21  C   UNL     1     -17.860   4.696  -4.582  0.00  0.00    +0.114 C 
BRANCH  21  22
ATOM     22  N   UNL     1     -18.180   4.777  -3.118  0.00  0.00    -0.326 NA
ATOM     23  H   UNL     1     -18.244   3.836  -2.731  0.00  0.00    +0.119 HD
ATOM     24  H   UNL     1     -17.444   5.294  -2.638  0.00  0.00    +0.119 HD
ENDBRANCH  21  22
ENDBRANCH   4  21
TORSDOF 5
ENDMDL
