MODEL 1
REMARK VINA RESULT:      -7.9      0.000      0.000
REMARK  Name = min_compound991.pdb
REMARK  6 active torsions:
REMARK  status: ('A' for Active; 'I' for Inactive)
REMARK    1  A    between atoms: _1  and  _7
REMARK    2  A    between atoms: _1  and  _20
REMARK    3  A    between atoms: _8  and  _20
REMARK    4  A    between atoms: _10  and  _22
REMARK    5  A    between atoms: _15  and  _24
REMARK    6  A    between atoms: _22  and  _24
REMARK                            x       y       z     vdW  Elec       q    Type
REMARK                         _______ _______ _______ _____ _____    ______ ____
ROOT
ATOM      1  C   UNL     1     -14.048   5.149 -17.586  0.00  0.00    +0.073 A 
ATOM      2  C   UNL     1     -14.206   6.290 -18.381  0.00  0.00    +0.016 A 
ATOM      3  C   UNL     1     -13.109   7.117 -18.634  0.00  0.00    +0.001 A 
ATOM      4  C   UNL     1     -11.856   6.812 -18.094  0.00  0.00    +0.001 A 
ATOM      5  C   UNL     1     -11.691   5.668 -17.311  0.00  0.00    +0.016 A 
ATOM      6  C   UNL     1     -12.791   4.839 -17.062  0.00  0.00    +0.073 A 
ENDROOT
BRANCH   6   7
ATOM      7  C   UNL     1     -12.590   3.548 -16.407  0.00  0.00    +0.340 C 
ATOM      8  O   UNL     1     -12.716   3.411 -15.201  0.00  0.00    -0.245 OA
BRANCH   7   9
ATOM      9  O   UNL     1     -12.297   2.565 -17.309  0.00  0.00    -0.458 OA
BRANCH   9  10
ATOM     10  C   UNL     1     -11.592   1.457 -16.597  0.00  0.00    +0.177 C 
ATOM     11  C   UNL     1     -11.740  -0.035 -17.127  0.00  0.00    +0.044 C 
ATOM     12  C   UNL     1     -10.891  -0.985 -16.056  0.00  0.00    +0.004 C 
ATOM     13  C   UNL     1      -9.484  -0.674 -16.473  0.00  0.00    +0.000 C 
ATOM     14  C   UNL     1      -9.381   0.403 -17.482  0.00  0.00    +0.004 C 
ATOM     15  C   UNL     1     -10.186   1.769 -17.014  0.00  0.00    +0.044 C 
ENDBRANCH   9  10
ENDBRANCH   7   9
ENDBRANCH   6   7
BRANCH   1  16
ATOM     16  C   UNL     1     -15.247   4.359 -17.239  0.00  0.00    +0.340 C 
ATOM     17  O   UNL     1     -15.691   3.430 -17.884  0.00  0.00    -0.245 OA
BRANCH  16  18
ATOM     18  O   UNL     1     -15.873   5.058 -16.255  0.00  0.00    -0.458 OA
BRANCH  18  19
ATOM     19  C   UNL     1     -16.010   4.477 -14.879  0.00  0.00    +0.177 C 
ATOM     20  C   UNL     1     -16.870   3.268 -14.658  0.00  0.00    +0.044 C 
ATOM     21  C   UNL     1     -17.007   2.688 -13.282  0.00  0.00    +0.004 C 
ATOM     22  C   UNL     1     -16.757   3.714 -12.110  0.00  0.00    +0.000 C 
ATOM     23  C   UNL     1     -15.424   4.525 -12.349  0.00  0.00    +0.004 C 
ATOM     24  C   UNL     1     -15.287   5.106 -13.725  0.00  0.00    +0.044 C 
ENDBRANCH  18  19
ENDBRANCH  16  18
ENDBRANCH   1  16
TORSDOF 6
ENDMDL
MODEL 2
REMARK VINA RESULT:      -7.9      1.048      5.991
REMARK  Name = min_compound991.pdb
REMARK  6 active torsions:
REMARK  status: ('A' for Active; 'I' for Inactive)
REMARK    1  A    between atoms: _1  and  _7
REMARK    2  A    between atoms: _1  and  _20
REMARK    3  A    between atoms: _8  and  _20
REMARK    4  A    between atoms: _10  and  _22
REMARK    5  A    between atoms: _15  and  _24
REMARK    6  A    between atoms: _22  and  _24
REMARK                            x       y       z     vdW  Elec       q    Type
REMARK                         _______ _______ _______ _____ _____    ______ ____
ROOT
ATOM      1  C   UNL     1     -12.326   4.952 -16.978  0.00  0.00    +0.073 A 
ATOM      2  C   UNL     1     -11.745   6.097 -17.534  0.00  0.00    +0.016 A 
ATOM      3  C   UNL     1     -12.558   7.083 -18.098  0.00  0.00    +0.001 A 
ATOM      4  C   UNL     1     -13.947   6.929 -18.113  0.00  0.00    +0.001 A 
ATOM      5  C   UNL     1     -14.531   5.795 -17.547  0.00  0.00    +0.016 A 
ATOM      6  C   UNL     1     -13.715   4.809 -16.979  0.00  0.00    +0.073 A 
ENDROOT
BRANCH   6   7
ATOM      7  C   UNL     1     -14.321   3.716 -16.221  0.00  0.00    +0.340 C 
ATOM      8  O   UNL     1     -14.768   2.723 -16.770  0.00  0.00    -0.245 OA
BRANCH   7   9
ATOM      9  O   UNL     1     -14.274   3.949 -14.876  0.00  0.00    -0.458 OA
BRANCH   9  10
ATOM     10  C   UNL     1     -15.672   4.038 -14.357  0.00  0.00    +0.177 C 
ATOM     11  C   UNL     1     -16.425   2.714 -13.900  0.00  0.00    +0.044 C 
ATOM     12  C   UNL     1     -17.958   3.191 -13.461  0.00  0.00    +0.004 C 
ATOM     13  C   UNL     1     -17.674   3.829 -12.133  0.00  0.00    +0.000 C 
ATOM     14  C   UNL     1     -16.233   3.940 -11.816  0.00  0.00    +0.004 C 
ATOM     15  C   UNL     1     -15.387   4.676 -13.029  0.00  0.00    +0.044 C 
ENDBRANCH   9  10
ENDBRANCH   7   9
ENDBRANCH   6   7
BRANCH   1  16
ATOM     16  C   UNL     1     -11.439   3.874 -16.495  0.00  0.00    +0.340 C 
ATOM     17  O   UNL     1     -10.706   3.943 -15.528  0.00  0.00    -0.245 OA
BRANCH  16  18
ATOM     18  O   UNL     1     -11.407   2.952 -17.493  0.00  0.00    -0.458 OA
BRANCH  18  19
ATOM     19  C   UNL     1     -11.042   1.527 -17.200  0.00  0.00    +0.177 C 
ATOM     20  C   UNL     1     -12.076   0.584 -16.658  0.00  0.00    +0.044 C 
ATOM     21  C   UNL     1     -11.711  -0.841 -16.365  0.00  0.00    +0.004 C 
ATOM     22  C   UNL     1     -10.181  -1.076 -16.062  0.00  0.00    +0.000 C 
ATOM     23  C   UNL     1      -9.279  -0.381 -17.155  0.00  0.00    +0.004 C 
ATOM     24  C   UNL     1      -9.644   1.044 -17.448  0.00  0.00    +0.044 C 
ENDBRANCH  18  19
ENDBRANCH  16  18
ENDBRANCH   1  16
TORSDOF 6
ENDMDL
MODEL 3
REMARK VINA RESULT:      -7.6      1.149      2.034
REMARK  Name = min_compound991.pdb
REMARK  6 active torsions:
REMARK  status: ('A' for Active; 'I' for Inactive)
REMARK    1  A    between atoms: _1  and  _7
REMARK    2  A    between atoms: _1  and  _20
REMARK    3  A    between atoms: _8  and  _20
REMARK    4  A    between atoms: _10  and  _22
REMARK    5  A    between atoms: _15  and  _24
REMARK    6  A    between atoms: _22  and  _24
REMARK                            x       y       z     vdW  Elec       q    Type
REMARK                         _______ _______ _______ _____ _____    ______ ____
ROOT
ATOM      1  C   UNL     1     -14.630   4.527 -16.962  0.00  0.00    +0.073 A 
ATOM      2  C   UNL     1     -14.816   5.898 -16.754  0.00  0.00    +0.016 A 
ATOM      3  C   UNL     1     -13.794   6.794 -17.079  0.00  0.00    +0.001 A 
ATOM      4  C   UNL     1     -12.587   6.326 -17.608  0.00  0.00    +0.001 A 
ATOM      5  C   UNL     1     -12.403   4.960 -17.829  0.00  0.00    +0.016 A 
ATOM      6  C   UNL     1     -13.429   4.065 -17.505  0.00  0.00    +0.073 A 
ENDROOT
BRANCH   6   7
ATOM      7  C   UNL     1     -13.320   2.664 -17.906  0.00  0.00    +0.340 C 
ATOM      8  O   UNL     1     -13.573   2.297 -19.042  0.00  0.00    -0.245 OA
BRANCH   7   9
ATOM      9  O   UNL     1     -12.874   1.880 -16.881  0.00  0.00    -0.458 OA
BRANCH   9  10
ATOM     10  C   UNL     1     -11.704   1.085 -17.360  0.00  0.00    +0.177 C 
ATOM     11  C   UNL     1     -10.258   1.382 -16.768  0.00  0.00    +0.044 C 
ATOM     12  C   UNL     1      -9.216   0.370 -17.580  0.00  0.00    +0.004 C 
ATOM     13  C   UNL     1      -9.532  -0.937 -16.915  0.00  0.00    +0.000 C 
ATOM     14  C   UNL     1     -10.680  -0.874 -15.982  0.00  0.00    +0.004 C 
ATOM     15  C   UNL     1     -12.020  -0.222 -16.694  0.00  0.00    +0.044 C 
ENDBRANCH   9  10
ENDBRANCH   7   9
ENDBRANCH   6   7
BRANCH   1  16
ATOM     16  C   UNL     1     -15.679   3.595 -16.500  0.00  0.00    +0.340 C 
ATOM     17  O   UNL     1     -16.816   3.545 -16.926  0.00  0.00    -0.245 OA
BRANCH  16  18
ATOM     18  O   UNL     1     -15.200   3.044 -15.353  0.00  0.00    -0.458 OA
BRANCH  18  19
ATOM     19  C   UNL     1     -15.741   3.471 -14.021  0.00  0.00    +0.177 C 
ATOM     20  C   UNL     1     -15.058   4.559 -13.247  0.00  0.00    +0.044 C 
ATOM     21  C   UNL     1     -15.600   4.985 -11.915  0.00  0.00    +0.004 C 
ATOM     22  C   UNL     1     -16.440   3.879 -11.165  0.00  0.00    +0.000 C 
ATOM     23  C   UNL     1     -17.508   3.235 -12.131  0.00  0.00    +0.004 C 
ATOM     24  C   UNL     1     -16.966   2.809 -13.463  0.00  0.00    +0.044 C 
ENDBRANCH  18  19
ENDBRANCH  16  18
ENDBRANCH   1  16
TORSDOF 6
ENDMDL
MODEL 4
REMARK VINA RESULT:      -7.4      2.340      5.514
REMARK  Name = min_compound991.pdb
REMARK  6 active torsions:
REMARK  status: ('A' for Active; 'I' for Inactive)
REMARK    1  A    between atoms: _1  and  _7
REMARK    2  A    between atoms: _1  and  _20
REMARK    3  A    between atoms: _8  and  _20
REMARK    4  A    between atoms: _10  and  _22
REMARK    5  A    between atoms: _15  and  _24
REMARK    6  A    between atoms: _22  and  _24
REMARK                            x       y       z     vdW  Elec       q    Type
REMARK                         _______ _______ _______ _____ _____    ______ ____
ROOT
ATOM      1  C   UNL     1     -12.894   5.249 -17.040  0.00  0.00    +0.073 A 
ATOM      2  C   UNL     1     -14.234   5.603 -16.844  0.00  0.00    +0.016 A 
ATOM      3  C   UNL     1     -15.041   4.823 -16.011  0.00  0.00    +0.001 A 
ATOM      4  C   UNL     1     -14.518   3.692 -15.378  0.00  0.00    +0.001 A 
ATOM      5  C   UNL     1     -13.179   3.344 -15.561  0.00  0.00    +0.016 A 
ATOM      6  C   UNL     1     -12.371   4.129 -16.393  0.00  0.00    +0.073 A 
ENDROOT
BRANCH   6   7
ATOM      7  C   UNL     1     -10.930   3.884 -16.441  0.00  0.00    +0.340 C 
ATOM      8  O   UNL     1     -10.188   4.227 -15.535  0.00  0.00    -0.245 OA
BRANCH   7   9
ATOM      9  O   UNL     1     -10.570   3.212 -17.574  0.00  0.00    -0.458 OA
BRANCH   9  10
ATOM     10  C   UNL     1     -10.215   1.809 -17.206  0.00  0.00    +0.177 C 
ATOM     11  C   UNL     1     -10.404   1.320 -15.704  0.00  0.00    +0.044 C 
ATOM     12  C   UNL     1      -9.843  -0.246 -15.661  0.00  0.00    +0.004 C 
ATOM     13  C   UNL     1     -10.977  -0.959 -16.336  0.00  0.00    +0.000 C 
ATOM     14  C   UNL     1     -12.007  -0.056 -16.896  0.00  0.00    +0.004 C 
ATOM     15  C   UNL     1     -11.349   1.096 -17.882  0.00  0.00    +0.044 C 
ENDBRANCH   9  10
ENDBRANCH   7   9
ENDBRANCH   6   7
BRANCH   1  16
ATOM     16  C   UNL     1     -12.097   6.022 -18.015  0.00  0.00    +0.340 C 
ATOM     17  O   UNL     1     -11.538   7.078 -17.792  0.00  0.00    -0.245 OA
BRANCH  16  18
ATOM     18  O   UNL     1     -12.365   5.467 -19.227  0.00  0.00    -0.458 OA
BRANCH  18  19
ATOM     19  C   UNL     1     -12.499   6.332 -20.446  0.00  0.00    +0.177 C 
ATOM     20  C   UNL     1     -13.860   6.691 -20.964  0.00  0.00    +0.044 C 
ATOM     21  C   UNL     1     -13.995   7.556 -22.182  0.00  0.00    +0.004 C 
ATOM     22  C   UNL     1     -12.756   7.508 -23.159  0.00  0.00    +0.000 C 
ATOM     23  C   UNL     1     -11.407   7.701 -22.364  0.00  0.00    +0.004 C 
ATOM     24  C   UNL     1     -11.273   6.837 -21.146  0.00  0.00    +0.044 C 
ENDBRANCH  18  19
ENDBRANCH  16  18
ENDBRANCH   1  16
TORSDOF 6
ENDMDL
MODEL 5
REMARK VINA RESULT:      -7.3      2.774      5.784
REMARK  Name = min_compound991.pdb
REMARK  6 active torsions:
REMARK  status: ('A' for Active; 'I' for Inactive)
REMARK    1  A    between atoms: _1  and  _7
REMARK    2  A    between atoms: _1  and  _20
REMARK    3  A    between atoms: _8  and  _20
REMARK    4  A    between atoms: _10  and  _22
REMARK    5  A    between atoms: _15  and  _24
REMARK    6  A    between atoms: _22  and  _24
REMARK                            x       y       z     vdW  Elec       q    Type
REMARK                         _______ _______ _______ _____ _____    ______ ____
ROOT
ATOM      1  C   UNL     1     -12.539   3.258 -16.603  0.00  0.00    +0.073 A 
ATOM      2  C   UNL     1     -11.632   3.099 -15.549  0.00  0.00    +0.016 A 
ATOM      3  C   UNL     1     -10.534   3.958 -15.444  0.00  0.00    +0.001 A 
ATOM      4  C   UNL     1     -10.337   4.971 -16.386  0.00  0.00    +0.001 A 
ATOM      5  C   UNL     1     -11.247   5.141 -17.431  0.00  0.00    +0.016 A 
ATOM      6  C   UNL     1     -12.348   4.282 -17.533  0.00  0.00    +0.073 A 
ENDROOT
BRANCH   6   7
ATOM      7  C   UNL     1     -13.401   4.568 -18.505  0.00  0.00    +0.340 C 
ATOM      8  O   UNL     1     -14.436   5.130 -18.187  0.00  0.00    -0.245 OA
BRANCH   7   9
ATOM      9  O   UNL     1     -13.047   4.170 -19.763  0.00  0.00    -0.458 OA
BRANCH   9  10
ATOM     10  C   UNL     1     -14.208   3.465 -20.386  0.00  0.00    +0.177 C 
ATOM     11  C   UNL     1     -14.761   3.958 -21.793  0.00  0.00    +0.044 C 
ATOM     12  C   UNL     1     -16.080   2.998 -22.125  0.00  0.00    +0.004 C 
ATOM     13  C   UNL     1     -15.395   1.723 -22.520  0.00  0.00    +0.000 C 
ATOM     14  C   UNL     1     -13.929   1.741 -22.317  0.00  0.00    +0.004 C 
ATOM     15  C   UNL     1     -13.523   2.191 -20.780  0.00  0.00    +0.044 C 
ENDBRANCH   9  10
ENDBRANCH   7   9
ENDBRANCH   6   7
BRANCH   1  16
ATOM     16  C   UNL     1     -13.622   2.266 -16.756  0.00  0.00    +0.340 C 
ATOM     17  O   UNL     1     -14.618   2.195 -16.064  0.00  0.00    -0.245 OA
BRANCH  16  18
ATOM     18  O   UNL     1     -13.135   1.322 -17.605  0.00  0.00    -0.458 OA
BRANCH  18  19
ATOM     19  C   UNL     1     -11.941   0.499 -17.223  0.00  0.00    +0.177 C 
ATOM     20  C   UNL     1     -12.077  -0.593 -16.204  0.00  0.00    +0.044 C 
ATOM     21  C   UNL     1     -10.883  -1.416 -15.822  0.00  0.00    +0.004 C 
ATOM     22  C   UNL     1      -9.495  -0.696 -16.039  0.00  0.00    +0.000 C 
ATOM     23  C   UNL     1      -9.415  -0.055 -17.478  0.00  0.00    +0.004 C 
ATOM     24  C   UNL     1     -10.610   0.768 -17.860  0.00  0.00    +0.044 C 
ENDBRANCH  18  19
ENDBRANCH  16  18
ENDBRANCH   1  16
TORSDOF 6
ENDMDL
MODEL 6
REMARK VINA RESULT:      -7.2      2.428      6.535
REMARK  Name = min_compound991.pdb
REMARK  6 active torsions:
REMARK  status: ('A' for Active; 'I' for Inactive)
REMARK    1  A    between atoms: _1  and  _7
REMARK    2  A    between atoms: _1  and  _20
REMARK    3  A    between atoms: _8  and  _20
REMARK    4  A    between atoms: _10  and  _22
REMARK    5  A    between atoms: _15  and  _24
REMARK    6  A    between atoms: _22  and  _24
REMARK                            x       y       z     vdW  Elec       q    Type
REMARK                         _______ _______ _______ _____ _____    ______ ____
ROOT
ATOM      1  C   UNL     1     -12.894   4.494 -16.566  0.00  0.00    +0.073 A 
ATOM      2  C   UNL     1     -13.795   3.790 -15.758  0.00  0.00    +0.016 A 
ATOM      3  C   UNL     1     -15.073   4.308 -15.531  0.00  0.00    +0.001 A 
ATOM      4  C   UNL     1     -15.453   5.525 -16.103  0.00  0.00    +0.001 A 
ATOM      5  C   UNL     1     -14.562   6.223 -16.920  0.00  0.00    +0.016 A 
ATOM      6  C   UNL     1     -13.284   5.701 -17.149  0.00  0.00    +0.073 A 
ENDROOT
BRANCH   6   7
ATOM      7  C   UNL     1     -12.416   6.324 -18.148  0.00  0.00    +0.340 C 
ATOM      8  O   UNL     1     -11.595   7.175 -17.846  0.00  0.00    -0.245 OA
BRANCH   7   9
ATOM      9  O   UNL     1     -12.627   5.804 -19.393  0.00  0.00    -0.458 OA
BRANCH   9  10
ATOM     10  C   UNL     1     -12.269   6.838 -20.410  0.00  0.00    +0.177 C 
ATOM     11  C   UNL     1     -11.325   6.445 -21.628  0.00  0.00    +0.044 C 
ATOM     12  C   UNL     1     -11.092   7.848 -22.493  0.00  0.00    +0.004 C 
ATOM     13  C   UNL     1     -12.417   7.963 -23.186  0.00  0.00    +0.000 C 
ATOM     14  C   UNL     1     -13.415   6.963 -22.745  0.00  0.00    +0.004 C 
ATOM     15  C   UNL     1     -13.594   6.952 -21.103  0.00  0.00    +0.044 C 
ENDBRANCH   9  10
ENDBRANCH   7   9
ENDBRANCH   6   7
BRANCH   1  16
ATOM     16  C   UNL     1     -11.514   3.983 -16.693  0.00  0.00    +0.340 C 
ATOM     17  O   UNL     1     -10.519   4.519 -16.247  0.00  0.00    -0.245 OA
BRANCH  16  18
ATOM     18  O   UNL     1     -11.575   2.994 -17.623  0.00  0.00    -0.458 OA
BRANCH  18  19
ATOM     19  C   UNL     1     -11.145   1.599 -17.279  0.00  0.00    +0.177 C 
ATOM     20  C   UNL     1     -12.135   0.630 -16.703  0.00  0.00    +0.044 C 
ATOM     21  C   UNL     1     -11.706  -0.765 -16.358  0.00  0.00    +0.004 C 
ATOM     22  C   UNL     1     -10.166  -0.919 -16.048  0.00  0.00    +0.000 C 
ATOM     23  C   UNL     1      -9.297  -0.223 -17.166  0.00  0.00    +0.004 C 
ATOM     24  C   UNL     1      -9.726   1.172 -17.510  0.00  0.00    +0.044 C 
ENDBRANCH  18  19
ENDBRANCH  16  18
ENDBRANCH   1  16
TORSDOF 6
ENDMDL
MODEL 7
REMARK VINA RESULT:      -7.2      2.545      4.913
REMARK  Name = min_compound991.pdb
REMARK  6 active torsions:
REMARK  status: ('A' for Active; 'I' for Inactive)
REMARK    1  A    between atoms: _1  and  _7
REMARK    2  A    between atoms: _1  and  _20
REMARK    3  A    between atoms: _8  and  _20
REMARK    4  A    between atoms: _10  and  _22
REMARK    5  A    between atoms: _15  and  _24
REMARK    6  A    between atoms: _22  and  _24
REMARK                            x       y       z     vdW  Elec       q    Type
REMARK                         _______ _______ _______ _____ _____    ______ ____
ROOT
ATOM      1  C   UNL     1     -13.350   5.122 -16.938  0.00  0.00    +0.073 A 
ATOM      2  C   UNL     1     -14.611   5.517 -16.477  0.00  0.00    +0.016 A 
ATOM      3  C   UNL     1     -15.182   4.868 -15.379  0.00  0.00    +0.001 A 
ATOM      4  C   UNL     1     -14.500   3.828 -14.741  0.00  0.00    +0.001 A 
ATOM      5  C   UNL     1     -13.236   3.440 -15.190  0.00  0.00    +0.016 A 
ATOM      6  C   UNL     1     -12.665   4.093 -16.289  0.00  0.00    +0.073 A 
ENDROOT
BRANCH   6   7
ATOM      7  C   UNL     1     -11.273   3.826 -16.646  0.00  0.00    +0.340 C 
ATOM      8  O   UNL     1     -10.345   4.243 -15.973  0.00  0.00    -0.245 OA
BRANCH   7   9
ATOM      9  O   UNL     1     -11.180   3.045 -17.762  0.00  0.00    -0.458 OA
BRANCH   9  10
ATOM     10  C   UNL     1     -10.632   1.712 -17.369  0.00  0.00    +0.177 C 
ATOM     11  C   UNL     1     -10.507   1.338 -15.828  0.00  0.00    +0.044 C 
ATOM     12  C   UNL     1      -9.798  -0.167 -15.781  0.00  0.00    +0.004 C 
ATOM     13  C   UNL     1     -10.958  -1.026 -16.188  0.00  0.00    +0.000 C 
ATOM     14  C   UNL     1     -12.152  -0.262 -16.611  0.00  0.00    +0.004 C 
ATOM     15  C   UNL     1     -11.792   0.853 -17.777  0.00  0.00    +0.044 C 
ENDBRANCH   9  10
ENDBRANCH   7   9
ENDBRANCH   6   7
BRANCH   1  16
ATOM     16  C   UNL     1     -12.824   5.744 -18.170  0.00  0.00    +0.340 C 
ATOM     17  O   UNL     1     -11.861   6.482 -18.233  0.00  0.00    -0.245 OA
BRANCH  16  18
ATOM     18  O   UNL     1     -13.783   5.554 -19.114  0.00  0.00    -0.458 OA
BRANCH  18  19
ATOM     19  C   UNL     1     -13.645   4.458 -20.130  0.00  0.00    +0.177 C 
ATOM     20  C   UNL     1     -13.145   4.772 -21.508  0.00  0.00    +0.044 C 
ATOM     21  C   UNL     1     -13.007   3.677 -22.524  0.00  0.00    +0.004 C 
ATOM     22  C   UNL     1     -13.951   2.436 -22.281  0.00  0.00    +0.000 C 
ATOM     23  C   UNL     1     -13.868   1.953 -20.781  0.00  0.00    +0.004 C 
ATOM     24  C   UNL     1     -14.007   3.049 -19.766  0.00  0.00    +0.044 C 
ENDBRANCH  18  19
ENDBRANCH  16  18
ENDBRANCH   1  16
TORSDOF 6
ENDMDL
MODEL 8
REMARK VINA RESULT:      -7.1      2.659      6.667
REMARK  Name = min_compound991.pdb
REMARK  6 active torsions:
REMARK  status: ('A' for Active; 'I' for Inactive)
REMARK    1  A    between atoms: _1  and  _7
REMARK    2  A    between atoms: _1  and  _20
REMARK    3  A    between atoms: _8  and  _20
REMARK    4  A    between atoms: _10  and  _22
REMARK    5  A    between atoms: _15  and  _24
REMARK    6  A    between atoms: _22  and  _24
REMARK                            x       y       z     vdW  Elec       q    Type
REMARK                         _______ _______ _______ _____ _____    ______ ____
ROOT
ATOM      1  C   UNL     1     -12.460   3.366 -16.634  0.00  0.00    +0.073 A 
ATOM      2  C   UNL     1     -11.451   3.127 -15.695  0.00  0.00    +0.016 A 
ATOM      3  C   UNL     1     -10.381   4.019 -15.585  0.00  0.00    +0.001 A 
ATOM      4  C   UNL     1     -10.314   5.146 -16.410  0.00  0.00    +0.001 A 
ATOM      5  C   UNL     1     -11.326   5.394 -17.338  0.00  0.00    +0.016 A 
ATOM      6  C   UNL     1     -12.398   4.501 -17.445  0.00  0.00    +0.073 A 
ENDROOT
BRANCH   6   7
ATOM      7  C   UNL     1     -13.550   4.849 -18.275  0.00  0.00    +0.340 C 
ATOM      8  O   UNL     1     -13.554   4.662 -19.481  0.00  0.00    -0.245 OA
BRANCH   7   9
ATOM      9  O   UNL     1     -14.578   5.348 -17.527  0.00  0.00    -0.458 OA
BRANCH   9  10
ATOM     10  C   UNL     1     -14.965   6.682 -18.078  0.00  0.00    +0.177 C 
ATOM     11  C   UNL     1     -16.500   7.099 -18.115  0.00  0.00    +0.044 C 
ATOM     12  C   UNL     1     -16.549   8.591 -18.851  0.00  0.00    +0.004 C 
ATOM     13  C   UNL     1     -16.046   9.459 -17.735  0.00  0.00    +0.000 C 
ATOM     14  C   UNL     1     -15.571   8.705 -16.554  0.00  0.00    +0.004 C 
ATOM     15  C   UNL     1     -14.463   7.550 -16.962  0.00  0.00    +0.044 C 
ENDBRANCH   9  10
ENDBRANCH   7   9
ENDBRANCH   6   7
BRANCH   1  16
ATOM     16  C   UNL     1     -13.515   2.347 -16.810  0.00  0.00    +0.340 C 
ATOM     17  O   UNL     1     -14.507   2.231 -16.118  0.00  0.00    -0.245 OA
BRANCH  16  18
ATOM     18  O   UNL     1     -13.004   1.438 -17.682  0.00  0.00    -0.458 OA
BRANCH  18  19
ATOM     19  C   UNL     1     -11.878   0.538 -17.269  0.00  0.00    +0.177 C 
ATOM     20  C   UNL     1     -12.102  -0.512 -16.221  0.00  0.00    +0.044 C 
ATOM     21  C   UNL     1     -10.976  -1.412 -15.807  0.00  0.00    +0.004 C 
ATOM     22  C   UNL     1      -9.537  -0.807 -16.034  0.00  0.00    +0.000 C 
ATOM     23  C   UNL     1      -9.400  -0.214 -17.489  0.00  0.00    +0.004 C 
ATOM     24  C   UNL     1     -10.527   0.687 -17.903  0.00  0.00    +0.044 C 
ENDBRANCH  18  19
ENDBRANCH  16  18
ENDBRANCH   1  16
TORSDOF 6
ENDMDL
MODEL 9
REMARK VINA RESULT:      -7.0     10.953     14.114
REMARK  Name = min_compound991.pdb
REMARK  6 active torsions:
REMARK  status: ('A' for Active; 'I' for Inactive)
REMARK    1  A    between atoms: _1  and  _7
REMARK    2  A    between atoms: _1  and  _20
REMARK    3  A    between atoms: _8  and  _20
REMARK    4  A    between atoms: _10  and  _22
REMARK    5  A    between atoms: _15  and  _24
REMARK    6  A    between atoms: _22  and  _24
REMARK                            x       y       z     vdW  Elec       q    Type
REMARK                         _______ _______ _______ _____ _____    ______ ____
ROOT
ATOM      1  C   UNL     1     -15.904   0.600  -3.496  0.00  0.00    +0.073 A 
ATOM      2  C   UNL     1     -16.035   1.964  -3.781  0.00  0.00    +0.016 A 
ATOM      3  C   UNL     1     -14.896   2.770  -3.854  0.00  0.00    +0.001 A 
ATOM      4  C   UNL     1     -13.628   2.221  -3.642  0.00  0.00    +0.001 A 
ATOM      5  C   UNL     1     -13.493   0.858  -3.370  0.00  0.00    +0.016 A 
ATOM      6  C   UNL     1     -14.635   0.052  -3.300  0.00  0.00    +0.073 A 
ENDROOT
BRANCH   6   7
ATOM      7  C   UNL     1     -14.492  -1.399  -3.205  0.00  0.00    +0.340 C 
ATOM      8  O   UNL     1     -14.397  -2.103  -4.197  0.00  0.00    -0.245 OA
BRANCH   7   9
ATOM      9  O   UNL     1     -14.440  -1.817  -1.906  0.00  0.00    -0.458 OA
BRANCH   9  10
ATOM     10  C   UNL     1     -14.400  -3.310  -1.884  0.00  0.00    +0.177 C 
ATOM     11  C   UNL     1     -13.133  -4.052  -1.273  0.00  0.00    +0.044 C 
ATOM     12  C   UNL     1     -13.410  -5.679  -1.488  0.00  0.00    +0.004 C 
ATOM     13  C   UNL     1     -14.429  -5.925  -0.414  0.00  0.00    +0.000 C 
ATOM     14  C   UNL     1     -14.895  -4.696   0.265  0.00  0.00    +0.004 C 
ATOM     15  C   UNL     1     -15.419  -3.556  -0.811  0.00  0.00    +0.044 C 
ENDBRANCH   9  10
ENDBRANCH   7   9
ENDBRANCH   6   7
BRANCH   1  16
ATOM     16  C   UNL     1     -17.130  -0.201  -3.308  0.00  0.00    +0.340 C 
ATOM     17  O   UNL     1     -17.771  -0.282  -2.279  0.00  0.00    -0.245 OA
BRANCH  16  18
ATOM     18  O   UNL     1     -17.205  -1.015  -4.395  0.00  0.00    -0.458 OA
BRANCH  18  19
ATOM     19  C   UNL     1     -17.356  -0.435  -5.770  0.00  0.00    +0.177 C 
ATOM     20  C   UNL     1     -16.344  -0.749  -6.832  0.00  0.00    +0.044 C 
ATOM     21  C   UNL     1     -16.495  -0.169  -8.207  0.00  0.00    +0.004 C 
ATOM     22  C   UNL     1     -17.320   1.175  -8.264  0.00  0.00    +0.000 C 
ATOM     23  C   UNL     1     -18.670   1.039  -7.458  0.00  0.00    +0.004 C 
ATOM     24  C   UNL     1     -18.519   0.459  -6.083  0.00  0.00    +0.044 C 
ENDBRANCH  18  19
ENDBRANCH  16  18
ENDBRANCH   1  16
TORSDOF 6
ENDMDL
