MODEL 1
REMARK VINA RESULT:      -6.9      0.000      0.000
REMARK  Name = min_compound938.pdb
REMARK  11 active torsions:
REMARK  status: ('A' for Active; 'I' for Inactive)
REMARK    1  A    between atoms: _1  and  _19
REMARK    2  A    between atoms: _3  and  _6
REMARK    3  A    between atoms: _5  and  _18
REMARK    4  A    between atoms: _7  and  _13
REMARK    5  A    between atoms: _9  and  _17
REMARK    6  A    between atoms: _11  and  _20
REMARK    7  A    between atoms: _12  and  _14
REMARK    8  A    between atoms: _13  and  _15
REMARK    9  A    between atoms: _15  and  _16
REMARK   10  A    between atoms: _19  and  _21
REMARK   11  A    between atoms: _21  and  _22
REMARK                            x       y       z     vdW  Elec       q    Type
REMARK                         _______ _______ _______ _____ _____    ______ ____
ROOT
ATOM      1  C   UNL     1     -13.186   5.986 -17.282  0.00  0.00    -0.038 A 
ATOM      2  C   UNL     1     -14.258   6.908 -17.216  0.00  0.00    +0.004 A 
ATOM      3  C   UNL     1     -15.546   6.594 -16.657  0.00  0.00    +0.004 A 
ATOM      4  C   UNL     1     -15.815   5.403 -15.959  0.00  0.00    -0.047 A 
ATOM      5  C   UNL     1     -17.129   5.112 -15.297  0.00  0.00    +0.044 C 
ATOM      6  C   UNL     1     -14.663   4.559 -15.899  0.00  0.00    -0.040 A 
ATOM      7  C   UNL     1     -14.423   4.014 -14.483  0.00  0.00    +0.044 C 
ATOM      8  C   UNL     1     -13.487   4.661 -16.805  0.00  0.00    -0.011 A 
ENDROOT
BRANCH   8   9
ATOM      9  C   UNL     1     -12.616   3.387 -17.227  0.00  0.00    -0.011 A 
ATOM     10  C   UNL     1     -11.499   2.872 -16.380  0.00  0.00    -0.040 A 
ATOM     11  C   UNL     1     -10.338   3.836 -16.074  0.00  0.00    +0.044 C 
ATOM     12  C   UNL     1     -11.086   1.503 -16.310  0.00  0.00    -0.047 A 
ATOM     13  C   UNL     1     -10.210   0.921 -15.240  0.00  0.00    +0.044 C 
ATOM     14  C   UNL     1     -11.477   0.787 -17.446  0.00  0.00    +0.004 A 
ATOM     15  C   UNL     1     -12.218   1.382 -18.516  0.00  0.00    +0.004 A 
ATOM     16  C   UNL     1     -12.838   2.667 -18.449  0.00  0.00    -0.038 A 
BRANCH  16  17
ATOM     17  C   UNL     1     -13.714   3.249 -19.518  0.00  0.00    +0.050 C 
BRANCH  17  18
ATOM     18  C   UNL     1     -13.521   2.176 -20.614  0.00  0.00    +0.082 C 
BRANCH  18  19
ATOM     19  N   UNL     1     -13.331   1.188 -21.666  0.00  0.00    -0.330 NA
ATOM     20  H   UNL     1     -14.239   0.841 -21.974  0.00  0.00    +0.118 HD
ATOM     21  H   UNL     1     -12.847   1.619 -22.453  0.00  0.00    +0.118 HD
ENDBRANCH  18  19
ENDBRANCH  17  18
ENDBRANCH  16  17
ENDBRANCH   8   9
BRANCH   1  22
ATOM     22  C   UNL     1     -11.872   6.277 -17.944  0.00  0.00    +0.050 C 
BRANCH  22  23
ATOM     23  C   UNL     1     -11.836   6.729 -19.373  0.00  0.00    +0.082 C 
BRANCH  23  24
ATOM     24  N   UNL     1     -11.800   7.181 -20.803  0.00  0.00    -0.330 NA
ATOM     25  H   UNL     1     -12.292   8.070 -20.891  0.00  0.00    +0.118 HD
ATOM     26  H   UNL     1     -10.831   7.299 -21.099  0.00  0.00    +0.118 HD
ENDBRANCH  23  24
ENDBRANCH  22  23
ENDBRANCH   1  22
TORSDOF 7
ENDMDL
MODEL 2
REMARK VINA RESULT:      -6.7      2.267      5.360
REMARK  Name = min_compound938.pdb
REMARK  11 active torsions:
REMARK  status: ('A' for Active; 'I' for Inactive)
REMARK    1  A    between atoms: _1  and  _19
REMARK    2  A    between atoms: _3  and  _6
REMARK    3  A    between atoms: _5  and  _18
REMARK    4  A    between atoms: _7  and  _13
REMARK    5  A    between atoms: _9  and  _17
REMARK    6  A    between atoms: _11  and  _20
REMARK    7  A    between atoms: _12  and  _14
REMARK    8  A    between atoms: _13  and  _15
REMARK    9  A    between atoms: _15  and  _16
REMARK   10  A    between atoms: _19  and  _21
REMARK   11  A    between atoms: _21  and  _22
REMARK                            x       y       z     vdW  Elec       q    Type
REMARK                         _______ _______ _______ _____ _____    ______ ____
ROOT
ATOM      1  C   UNL     1     -13.538   1.830 -16.829  0.00  0.00    -0.038 A 
ATOM      2  C   UNL     1     -13.264   0.528 -16.346  0.00  0.00    +0.004 A 
ATOM      3  C   UNL     1     -12.045  -0.185 -16.624  0.00  0.00    +0.004 A 
ATOM      4  C   UNL     1     -10.932   0.405 -17.250  0.00  0.00    -0.047 A 
ATOM      5  C   UNL     1      -9.629  -0.308 -17.461  0.00  0.00    +0.044 C 
ATOM      6  C   UNL     1     -11.180   1.773 -17.582  0.00  0.00    -0.040 A 
ATOM      7  C   UNL     1     -10.016   2.685 -17.167  0.00  0.00    +0.044 C 
ATOM      8  C   UNL     1     -12.531   2.389 -17.691  0.00  0.00    -0.011 A 
ENDROOT
BRANCH   8   9
ATOM      9  C   UNL     1     -12.847   3.588 -18.703  0.00  0.00    -0.011 A 
ATOM     10  C   UNL     1     -12.586   5.015 -18.349  0.00  0.00    -0.040 A 
ATOM     11  C   UNL     1     -13.305   5.582 -17.111  0.00  0.00    +0.044 C 
ATOM     12  C   UNL     1     -12.249   6.045 -19.286  0.00  0.00    -0.047 A 
ATOM     13  C   UNL     1     -11.667   7.380 -18.927  0.00  0.00    +0.044 C 
ATOM     14  C   UNL     1     -12.664   5.719 -20.581  0.00  0.00    +0.004 A 
ATOM     15  C   UNL     1     -13.321   4.488 -20.895  0.00  0.00    +0.004 A 
ATOM     16  C   UNL     1     -13.413   3.375 -20.005  0.00  0.00    -0.038 A 
BRANCH  16  17
ATOM     17  C   UNL     1     -13.995   2.040 -20.364  0.00  0.00    +0.050 C 
BRANCH  17  18
ATOM     18  C   UNL     1     -13.309   1.826 -21.732  0.00  0.00    +0.082 C 
BRANCH  18  19
ATOM     19  N   UNL     1     -12.653   1.654 -23.020  0.00  0.00    -0.330 NA
ATOM     20  H   UNL     1     -11.847   2.276 -23.076  0.00  0.00    +0.118 HD
ATOM     21  H   UNL     1     -12.345   0.687 -23.118  0.00  0.00    +0.118 HD
ENDBRANCH  18  19
ENDBRANCH  17  18
ENDBRANCH  16  17
ENDBRANCH   8   9
BRANCH   1  22
ATOM     22  C   UNL     1     -14.841   2.542 -16.618  0.00  0.00    +0.050 C 
BRANCH  22  23
ATOM     23  C   UNL     1     -15.191   3.080 -15.262  0.00  0.00    +0.082 C 
BRANCH  23  24
ATOM     24  N   UNL     1     -15.541   3.617 -13.906  0.00  0.00    -0.330 NA
ATOM     25  H   UNL     1     -16.507   3.374 -13.683  0.00  0.00    +0.118 HD
ATOM     26  H   UNL     1     -14.919   3.210 -13.207  0.00  0.00    +0.118 HD
ENDBRANCH  23  24
ENDBRANCH  22  23
ENDBRANCH   1  22
TORSDOF 7
ENDMDL
MODEL 3
REMARK VINA RESULT:      -6.7      1.363      4.381
REMARK  Name = min_compound938.pdb
REMARK  11 active torsions:
REMARK  status: ('A' for Active; 'I' for Inactive)
REMARK    1  A    between atoms: _1  and  _19
REMARK    2  A    between atoms: _3  and  _6
REMARK    3  A    between atoms: _5  and  _18
REMARK    4  A    between atoms: _7  and  _13
REMARK    5  A    between atoms: _9  and  _17
REMARK    6  A    between atoms: _11  and  _20
REMARK    7  A    between atoms: _12  and  _14
REMARK    8  A    between atoms: _13  and  _15
REMARK    9  A    between atoms: _15  and  _16
REMARK   10  A    between atoms: _19  and  _21
REMARK   11  A    between atoms: _21  and  _22
REMARK                            x       y       z     vdW  Elec       q    Type
REMARK                         _______ _______ _______ _____ _____    ______ ____
ROOT
ATOM      1  C   UNL     1     -11.897   4.755 -17.092  0.00  0.00    -0.038 A 
ATOM      2  C   UNL     1     -10.725   4.668 -16.304  0.00  0.00    +0.004 A 
ATOM      3  C   UNL     1     -10.231   3.438 -15.743  0.00  0.00    +0.004 A 
ATOM      4  C   UNL     1     -10.759   2.175 -16.067  0.00  0.00    -0.047 A 
ATOM      5  C   UNL     1     -10.190   0.886 -15.555  0.00  0.00    +0.044 C 
ATOM      6  C   UNL     1     -11.841   2.281 -16.995  0.00  0.00    -0.040 A 
ATOM      7  C   UNL     1     -11.708   1.277 -18.150  0.00  0.00    +0.044 C 
ATOM      8  C   UNL     1     -12.623   3.522 -17.250  0.00  0.00    -0.011 A 
ENDROOT
BRANCH   8   9
ATOM      9  C   UNL     1     -14.168   3.491 -17.665  0.00  0.00    -0.011 A 
ATOM     10  C   UNL     1     -15.257   3.317 -16.658  0.00  0.00    -0.040 A 
ATOM     11  C   UNL     1     -15.238   2.037 -15.804  0.00  0.00    +0.044 C 
ATOM     12  C   UNL     1     -16.580   3.856 -16.778  0.00  0.00    -0.047 A 
ATOM     13  C   UNL     1     -17.565   3.978 -15.654  0.00  0.00    +0.044 C 
ATOM     14  C   UNL     1     -16.907   4.126 -18.111  0.00  0.00    +0.004 A 
ATOM     15  C   UNL     1     -15.997   3.900 -19.191  0.00  0.00    +0.004 A 
ATOM     16  C   UNL     1     -14.608   3.612 -19.026  0.00  0.00    -0.038 A 
BRANCH  16  17
ATOM     17  C   UNL     1     -13.622   3.489 -20.150  0.00  0.00    +0.050 C 
BRANCH  17  18
ATOM     18  C   UNL     1     -14.215   2.259 -20.873  0.00  0.00    +0.082 C 
BRANCH  18  19
ATOM     19  N   UNL     1     -14.749   1.100 -21.573  0.00  0.00    -0.330 NA
ATOM     20  H   UNL     1     -14.137   0.298 -21.418  0.00  0.00    +0.118 HD
ATOM     21  H   UNL     1     -15.682   0.889 -21.219  0.00  0.00    +0.118 HD
ENDBRANCH  18  19
ENDBRANCH  17  18
ENDBRANCH  16  17
ENDBRANCH   8   9
BRANCH   1  22
ATOM     22  C   UNL     1     -12.466   6.045 -17.604  0.00  0.00    +0.050 C 
BRANCH  22  23
ATOM     23  C   UNL     1     -11.975   6.619 -18.900  0.00  0.00    +0.082 C 
BRANCH  23  24
ATOM     24  N   UNL     1     -11.484   7.194 -20.195  0.00  0.00    -0.330 NA
ATOM     25  H   UNL     1     -10.466   7.257 -20.175  0.00  0.00    +0.118 HD
ATOM     26  H   UNL     1     -11.771   6.590 -20.966  0.00  0.00    +0.118 HD
ENDBRANCH  23  24
ENDBRANCH  22  23
ENDBRANCH   1  22
TORSDOF 7
ENDMDL
MODEL 4
REMARK VINA RESULT:      -6.0     10.658     13.079
REMARK  Name = min_compound938.pdb
REMARK  11 active torsions:
REMARK  status: ('A' for Active; 'I' for Inactive)
REMARK    1  A    between atoms: _1  and  _19
REMARK    2  A    between atoms: _3  and  _6
REMARK    3  A    between atoms: _5  and  _18
REMARK    4  A    between atoms: _7  and  _13
REMARK    5  A    between atoms: _9  and  _17
REMARK    6  A    between atoms: _11  and  _20
REMARK    7  A    between atoms: _12  and  _14
REMARK    8  A    between atoms: _13  and  _15
REMARK    9  A    between atoms: _15  and  _16
REMARK   10  A    between atoms: _19  and  _21
REMARK   11  A    between atoms: _21  and  _22
REMARK                            x       y       z     vdW  Elec       q    Type
REMARK                         _______ _______ _______ _____ _____    ______ ____
ROOT
ATOM      1  C   UNL     1     -17.442   3.929  -6.113  0.00  0.00    -0.038 A 
ATOM      2  C   UNL     1     -17.503   4.835  -7.199  0.00  0.00    +0.004 A 
ATOM      3  C   UNL     1     -17.269   4.457  -8.567  0.00  0.00    +0.004 A 
ATOM      4  C   UNL     1     -17.133   3.121  -8.986  0.00  0.00    -0.047 A 
ATOM      5  C   UNL     1     -16.979   2.716 -10.422  0.00  0.00    +0.044 C 
ATOM      6  C   UNL     1     -17.240   2.213  -7.886  0.00  0.00    -0.040 A 
ATOM      7  C   UNL     1     -18.179   1.038  -8.200  0.00  0.00    +0.044 C 
ATOM      8  C   UNL     1     -17.058   2.585  -6.457  0.00  0.00    -0.011 A 
ENDROOT
BRANCH   8   9
ATOM      9  C   UNL     1     -16.468   1.565  -5.373  0.00  0.00    -0.011 A 
ATOM     10  C   UNL     1     -15.007   1.476  -5.080  0.00  0.00    -0.040 A 
ATOM     11  C   UNL     1     -14.069   1.117  -6.247  0.00  0.00    +0.044 C 
ATOM     12  C   UNL     1     -14.445   1.109  -3.815  0.00  0.00    -0.047 A 
ATOM     13  C   UNL     1     -13.018   1.332  -3.409  0.00  0.00    +0.044 C 
ATOM     14  C   UNL     1     -15.351   0.377  -3.040  0.00  0.00    +0.004 A 
ATOM     15  C   UNL     1     -16.676   0.073  -3.485  0.00  0.00    +0.004 A 
ATOM     16  C   UNL     1     -17.298   0.663  -4.627  0.00  0.00    -0.038 A 
BRANCH  16  17
ATOM     17  C   UNL     1     -18.725   0.440  -5.033  0.00  0.00    +0.050 C 
BRANCH  17  18
ATOM     18  C   UNL     1     -18.838  -1.073  -4.736  0.00  0.00    +0.082 C 
BRANCH  18  19
ATOM     19  N   UNL     1     -18.972  -2.498  -4.471  0.00  0.00    -0.330 NA
ATOM     20  H   UNL     1     -18.642  -2.700  -3.527  0.00  0.00    +0.118 HD
ATOM     21  H   UNL     1     -19.952  -2.767  -4.553  0.00  0.00    +0.118 HD
ENDBRANCH  18  19
ENDBRANCH  17  18
ENDBRANCH  16  17
ENDBRANCH   8   9
BRANCH   1  22
ATOM     22  C   UNL     1     -17.597   4.333  -4.677  0.00  0.00    +0.050 C 
BRANCH  22  23
ATOM     23  C   UNL     1     -16.769   5.453  -4.120  0.00  0.00    +0.082 C 
BRANCH  23  24
ATOM     24  N   UNL     1     -15.941   6.574  -3.563  0.00  0.00    -0.330 NA
ATOM     25  H   UNL     1     -16.508   7.129  -2.922  0.00  0.00    +0.118 HD
ATOM     26  H   UNL     1     -15.141   6.188  -3.061  0.00  0.00    +0.118 HD
ENDBRANCH  23  24
ENDBRANCH  22  23
ENDBRANCH   1  22
TORSDOF 7
ENDMDL
MODEL 5
REMARK VINA RESULT:      -6.0      1.965      4.753
REMARK  Name = min_compound938.pdb
REMARK  11 active torsions:
REMARK  status: ('A' for Active; 'I' for Inactive)
REMARK    1  A    between atoms: _1  and  _19
REMARK    2  A    between atoms: _3  and  _6
REMARK    3  A    between atoms: _5  and  _18
REMARK    4  A    between atoms: _7  and  _13
REMARK    5  A    between atoms: _9  and  _17
REMARK    6  A    between atoms: _11  and  _20
REMARK    7  A    between atoms: _12  and  _14
REMARK    8  A    between atoms: _13  and  _15
REMARK    9  A    between atoms: _15  and  _16
REMARK   10  A    between atoms: _19  and  _21
REMARK   11  A    between atoms: _21  and  _22
REMARK                            x       y       z     vdW  Elec       q    Type
REMARK                         _______ _______ _______ _____ _____    ______ ____
ROOT
ATOM      1  C   UNL     1     -13.838   4.341 -16.593  0.00  0.00    -0.038 A 
ATOM      2  C   UNL     1     -13.790   3.405 -15.532  0.00  0.00    +0.004 A 
ATOM      3  C   UNL     1     -12.730   2.449 -15.360  0.00  0.00    +0.004 A 
ATOM      4  C   UNL     1     -11.546   2.464 -16.121  0.00  0.00    -0.047 A 
ATOM      5  C   UNL     1     -10.400   1.525 -15.884  0.00  0.00    +0.044 C 
ATOM      6  C   UNL     1     -11.552   3.525 -17.079  0.00  0.00    -0.040 A 
ATOM      7  C   UNL     1     -10.230   4.308 -17.076  0.00  0.00    +0.044 C 
ATOM      8  C   UNL     1     -12.771   4.235 -17.553  0.00  0.00    -0.011 A 
ENDROOT
BRANCH   8   9
ATOM      9  C   UNL     1     -12.893   4.836 -19.031  0.00  0.00    -0.011 A 
ATOM     10  C   UNL     1     -12.306   6.158 -19.401  0.00  0.00    -0.040 A 
ATOM     11  C   UNL     1     -12.795   7.394 -18.625  0.00  0.00    +0.044 C 
ATOM     12  C   UNL     1     -11.823   6.506 -20.704  0.00  0.00    -0.047 A 
ATOM     13  C   UNL     1     -10.943   7.682 -21.011  0.00  0.00    +0.044 C 
ATOM     14  C   UNL     1     -12.389   5.700 -21.696  0.00  0.00    +0.004 A 
ATOM     15  C   UNL     1     -13.316   4.651 -21.402  0.00  0.00    +0.004 A 
ATOM     16  C   UNL     1     -13.583   4.155 -20.090  0.00  0.00    -0.038 A 
BRANCH  16  17
ATOM     17  C   UNL     1     -14.462   2.980 -19.783  0.00  0.00    +0.050 C 
BRANCH  17  18
ATOM     18  C   UNL     1     -13.883   1.962 -20.791  0.00  0.00    +0.082 C 
BRANCH  18  19
ATOM     19  N   UNL     1     -13.364   1.005 -21.757  0.00  0.00    -0.330 NA
ATOM     20  H   UNL     1     -12.705   1.473 -22.378  0.00  0.00    +0.118 HD
ATOM     21  H   UNL     1     -12.889   0.249 -21.265  0.00  0.00    +0.118 HD
ENDBRANCH  18  19
ENDBRANCH  17  18
ENDBRANCH  16  17
ENDBRANCH   8   9
BRANCH   1  22
ATOM     22  C   UNL     1     -14.984   5.280 -16.829  0.00  0.00    +0.050 C 
BRANCH  22  23
ATOM     23  C   UNL     1     -15.209   6.437 -15.901  0.00  0.00    +0.082 C 
BRANCH  23  24
ATOM     24  N   UNL     1     -15.435   7.594 -14.974  0.00  0.00    -0.330 NA
ATOM     25  H   UNL     1     -16.436   7.723 -14.829  0.00  0.00    +0.118 HD
ATOM     26  H   UNL     1     -14.983   7.405 -14.078  0.00  0.00    +0.118 HD
ENDBRANCH  23  24
ENDBRANCH  22  23
ENDBRANCH   1  22
TORSDOF 7
ENDMDL
MODEL 6
REMARK VINA RESULT:      -5.8      2.631      5.968
REMARK  Name = min_compound938.pdb
REMARK  11 active torsions:
REMARK  status: ('A' for Active; 'I' for Inactive)
REMARK    1  A    between atoms: _1  and  _19
REMARK    2  A    between atoms: _3  and  _6
REMARK    3  A    between atoms: _5  and  _18
REMARK    4  A    between atoms: _7  and  _13
REMARK    5  A    between atoms: _9  and  _17
REMARK    6  A    between atoms: _11  and  _20
REMARK    7  A    between atoms: _12  and  _14
REMARK    8  A    between atoms: _13  and  _15
REMARK    9  A    between atoms: _15  and  _16
REMARK   10  A    between atoms: _19  and  _21
REMARK   11  A    between atoms: _21  and  _22
REMARK                            x       y       z     vdW  Elec       q    Type
REMARK                         _______ _______ _______ _____ _____    ______ ____
ROOT
ATOM      1  C   UNL     1     -14.185   5.114 -18.105  0.00  0.00    -0.038 A 
ATOM      2  C   UNL     1     -12.979   5.242 -18.835  0.00  0.00    +0.004 A 
ATOM      3  C   UNL     1     -11.673   5.097 -18.250  0.00  0.00    +0.004 A 
ATOM      4  C   UNL     1     -11.463   4.638 -16.937  0.00  0.00    -0.047 A 
ATOM      5  C   UNL     1     -10.103   4.400 -16.352  0.00  0.00    +0.044 C 
ATOM      6  C   UNL     1     -12.699   4.360 -16.274  0.00  0.00    -0.040 A 
ATOM      7  C   UNL     1     -12.673   3.003 -15.554  0.00  0.00    +0.044 C 
ATOM      8  C   UNL     1     -14.025   4.891 -16.693  0.00  0.00    -0.011 A 
ENDROOT
BRANCH   8   9
ATOM      9  C   UNL     1     -15.195   5.199 -15.644  0.00  0.00    -0.011 A 
ATOM     10  C   UNL     1     -16.013   4.113 -15.026  0.00  0.00    -0.040 A 
ATOM     11  C   UNL     1     -16.807   3.195 -15.973  0.00  0.00    +0.044 C 
ATOM     12  C   UNL     1     -16.605   4.172 -13.723  0.00  0.00    -0.047 A 
ATOM     13  C   UNL     1     -17.135   2.993 -12.963  0.00  0.00    +0.044 C 
ATOM     14  C   UNL     1     -16.769   5.492 -13.291  0.00  0.00    +0.004 A 
ATOM     15  C   UNL     1     -16.361   6.617 -14.074  0.00  0.00    +0.004 A 
ATOM     16  C   UNL     1     -15.545   6.532 -15.243  0.00  0.00    -0.038 A 
BRANCH  16  17
ATOM     17  C   UNL     1     -15.015   7.711 -16.003  0.00  0.00    +0.050 C 
BRANCH  17  18
ATOM     18  C   UNL     1     -15.574   8.851 -15.122  0.00  0.00    +0.082 C 
BRANCH  18  19
ATOM     19  N   UNL     1     -16.074   9.941 -14.296  0.00  0.00    -0.330 NA
ATOM     20  H   UNL     1     -15.772   9.803 -13.332  0.00  0.00    +0.118 HD
ATOM     21  H   UNL     1     -15.707  10.826 -14.644  0.00  0.00    +0.118 HD
ENDBRANCH  18  19
ENDBRANCH  17  18
ENDBRANCH  16  17
ENDBRANCH   8   9
BRANCH   1  22
ATOM     22  C   UNL     1     -15.546   5.353 -18.690  0.00  0.00    +0.050 C 
BRANCH  22  23
ATOM     23  C   UNL     1     -16.126   4.370 -19.663  0.00  0.00    +0.082 C 
BRANCH  23  24
ATOM     24  N   UNL     1     -16.707   3.388 -20.637  0.00  0.00    -0.330 NA
ATOM     25  H   UNL     1     -17.185   3.892 -21.384  0.00  0.00    +0.118 HD
ATOM     26  H   UNL     1     -15.959   2.820 -21.035  0.00  0.00    +0.118 HD
ENDBRANCH  23  24
ENDBRANCH  22  23
ENDBRANCH   1  22
TORSDOF 7
ENDMDL
MODEL 7
REMARK VINA RESULT:      -5.8      2.527      5.276
REMARK  Name = min_compound938.pdb
REMARK  11 active torsions:
REMARK  status: ('A' for Active; 'I' for Inactive)
REMARK    1  A    between atoms: _1  and  _19
REMARK    2  A    between atoms: _3  and  _6
REMARK    3  A    between atoms: _5  and  _18
REMARK    4  A    between atoms: _7  and  _13
REMARK    5  A    between atoms: _9  and  _17
REMARK    6  A    between atoms: _11  and  _20
REMARK    7  A    between atoms: _12  and  _14
REMARK    8  A    between atoms: _13  and  _15
REMARK    9  A    between atoms: _15  and  _16
REMARK   10  A    between atoms: _19  and  _21
REMARK   11  A    between atoms: _21  and  _22
REMARK                            x       y       z     vdW  Elec       q    Type
REMARK                         _______ _______ _______ _____ _____    ______ ____
ROOT
ATOM      1  C   UNL     1     -13.255   6.187 -17.359  0.00  0.00    -0.038 A 
ATOM      2  C   UNL     1     -11.846   6.148 -17.480  0.00  0.00    +0.004 A 
ATOM      3  C   UNL     1     -11.033   5.068 -16.989  0.00  0.00    +0.004 A 
ATOM      4  C   UNL     1     -11.565   3.861 -16.501  0.00  0.00    -0.047 A 
ATOM      5  C   UNL     1     -10.721   2.698 -16.073  0.00  0.00    +0.044 C 
ATOM      6  C   UNL     1     -12.995   3.864 -16.543  0.00  0.00    -0.040 A 
ATOM      7  C   UNL     1     -13.555   2.565 -17.143  0.00  0.00    +0.044 C 
ATOM      8  C   UNL     1     -13.839   5.085 -16.639  0.00  0.00    -0.011 A 
ENDROOT
BRANCH   8   9
ATOM      9  C   UNL     1     -15.296   5.175 -15.982  0.00  0.00    -0.011 A 
ATOM     10  C   UNL     1     -15.494   5.367 -14.514  0.00  0.00    -0.040 A 
ATOM     11  C   UNL     1     -14.896   4.307 -13.571  0.00  0.00    +0.044 C 
ATOM     12  C   UNL     1     -16.609   6.040 -13.918  0.00  0.00    -0.047 A 
ATOM     13  C   UNL     1     -16.662   6.530 -12.501  0.00  0.00    +0.044 C 
ATOM     14  C   UNL     1     -17.715   6.062 -14.773  0.00  0.00    +0.004 A 
ATOM     15  C   UNL     1     -17.688   5.492 -16.084  0.00  0.00    +0.004 A 
ATOM     16  C   UNL     1     -16.502   5.061 -16.751  0.00  0.00    -0.038 A 
BRANCH  16  17
ATOM     17  C   UNL     1     -16.448   4.571 -18.168  0.00  0.00    +0.050 C 
BRANCH  17  18
ATOM     18  C   UNL     1     -17.784   3.796 -18.217  0.00  0.00    +0.082 C 
BRANCH  18  19
ATOM     19  N   UNL     1     -19.029   3.042 -18.248  0.00  0.00    -0.330 NA
ATOM     20  H   UNL     1     -18.835   2.078 -18.516  0.00  0.00    +0.118 HD
ATOM     21  H   UNL     1     -19.458   3.058 -17.323  0.00  0.00    +0.118 HD
ENDBRANCH  18  19
ENDBRANCH  17  18
ENDBRANCH  16  17
ENDBRANCH   8   9
BRANCH   1  22
ATOM     22  C   UNL     1     -14.100   7.350 -17.787  0.00  0.00    +0.050 C 
BRANCH  22  23
ATOM     23  C   UNL     1     -14.653   8.294 -16.761  0.00  0.00    +0.082 C 
BRANCH  23  24
ATOM     24  N   UNL     1     -15.206   9.238 -15.735  0.00  0.00    -0.330 NA
ATOM     25  H   UNL     1     -16.133   9.549 -16.024  0.00  0.00    +0.118 HD
ATOM     26  H   UNL     1     -15.274   8.761 -14.835  0.00  0.00    +0.118 HD
ENDBRANCH  23  24
ENDBRANCH  22  23
ENDBRANCH   1  22
TORSDOF 7
ENDMDL
MODEL 8
REMARK VINA RESULT:      -5.7      3.090      5.887
REMARK  Name = min_compound938.pdb
REMARK  11 active torsions:
REMARK  status: ('A' for Active; 'I' for Inactive)
REMARK    1  A    between atoms: _1  and  _19
REMARK    2  A    between atoms: _3  and  _6
REMARK    3  A    between atoms: _5  and  _18
REMARK    4  A    between atoms: _7  and  _13
REMARK    5  A    between atoms: _9  and  _17
REMARK    6  A    between atoms: _11  and  _20
REMARK    7  A    between atoms: _12  and  _14
REMARK    8  A    between atoms: _13  and  _15
REMARK    9  A    between atoms: _15  and  _16
REMARK   10  A    between atoms: _19  and  _21
REMARK   11  A    between atoms: _21  and  _22
REMARK                            x       y       z     vdW  Elec       q    Type
REMARK                         _______ _______ _______ _____ _____    ______ ____
ROOT
ATOM      1  C   UNL     1     -16.930   3.517 -14.709  0.00  0.00    -0.038 A 
ATOM      2  C   UNL     1     -17.283   2.826 -13.525  0.00  0.00    +0.004 A 
ATOM      3  C   UNL     1     -16.752   3.146 -12.227  0.00  0.00    +0.004 A 
ATOM      4  C   UNL     1     -15.969   4.287 -11.974  0.00  0.00    -0.047 A 
ATOM      5  C   UNL     1     -15.488   4.672 -10.606  0.00  0.00    +0.044 C 
ATOM      6  C   UNL     1     -15.763   5.057 -13.161  0.00  0.00    -0.040 A 
ATOM      7  C   UNL     1     -16.012   6.555 -12.925  0.00  0.00    +0.044 C 
ATOM      8  C   UNL     1     -15.932   4.542 -14.547  0.00  0.00    -0.011 A 
ENDROOT
BRANCH   8   9
ATOM      9  C   UNL     1     -15.061   5.084 -15.775  0.00  0.00    -0.011 A 
ATOM     10  C   UNL     1     -15.439   6.312 -16.535  0.00  0.00    -0.040 A 
ATOM     11  C   UNL     1     -16.816   6.327 -17.224  0.00  0.00    +0.044 C 
ATOM     12  C   UNL     1     -14.513   7.196 -17.179  0.00  0.00    -0.047 A 
ATOM     13  C   UNL     1     -14.833   8.584 -17.651  0.00  0.00    +0.044 C 
ATOM     14  C   UNL     1     -13.299   6.559 -17.455  0.00  0.00    +0.004 A 
ATOM     15  C   UNL     1     -13.044   5.197 -17.101  0.00  0.00    +0.004 A 
ATOM     16  C   UNL     1     -13.875   4.421 -16.237  0.00  0.00    -0.038 A 
BRANCH  16  17
ATOM     17  C   UNL     1     -13.555   3.033 -15.765  0.00  0.00    +0.050 C 
BRANCH  17  18
ATOM     18  C   UNL     1     -12.026   3.172 -15.589  0.00  0.00    +0.082 C 
BRANCH  18  19
ATOM     19  N   UNL     1     -10.586   3.325 -15.446  0.00  0.00    -0.330 NA
ATOM     20  H   UNL     1     -10.276   4.140 -15.975  0.00  0.00    +0.118 HD
ATOM     21  H   UNL     1     -10.353   3.450 -14.461  0.00  0.00    +0.118 HD
ENDBRANCH  18  19
ENDBRANCH  17  18
ENDBRANCH  16  17
ENDBRANCH   8   9
BRANCH   1  22
ATOM     22  C   UNL     1     -17.410   3.132 -16.077  0.00  0.00    +0.050 C 
BRANCH  22  23
ATOM     23  C   UNL     1     -18.852   3.322 -16.447  0.00  0.00    +0.082 C 
BRANCH  23  24
ATOM     24  N   UNL     1     -20.293   3.512 -16.816  0.00  0.00    -0.330 NA
ATOM     25  H   UNL     1     -20.542   2.860 -17.560  0.00  0.00    +0.118 HD
ATOM     26  H   UNL     1     -20.879   3.336 -16.001  0.00  0.00    +0.118 HD
ENDBRANCH  23  24
ENDBRANCH  22  23
ENDBRANCH   1  22
TORSDOF 7
ENDMDL
MODEL 9
REMARK VINA RESULT:      -5.7      2.262      4.934
REMARK  Name = min_compound938.pdb
REMARK  11 active torsions:
REMARK  status: ('A' for Active; 'I' for Inactive)
REMARK    1  A    between atoms: _1  and  _19
REMARK    2  A    between atoms: _3  and  _6
REMARK    3  A    between atoms: _5  and  _18
REMARK    4  A    between atoms: _7  and  _13
REMARK    5  A    between atoms: _9  and  _17
REMARK    6  A    between atoms: _11  and  _20
REMARK    7  A    between atoms: _12  and  _14
REMARK    8  A    between atoms: _13  and  _15
REMARK    9  A    between atoms: _15  and  _16
REMARK   10  A    between atoms: _19  and  _21
REMARK   11  A    between atoms: _21  and  _22
REMARK                            x       y       z     vdW  Elec       q    Type
REMARK                         _______ _______ _______ _____ _____    ______ ____
ROOT
ATOM      1  C   UNL     1     -12.997   3.303 -16.503  0.00  0.00    -0.038 A 
ATOM      2  C   UNL     1     -13.339   3.453 -15.138  0.00  0.00    +0.004 A 
ATOM      3  C   UNL     1     -14.494   4.177 -14.680  0.00  0.00    +0.004 A 
ATOM      4  C   UNL     1     -15.497   4.656 -15.542  0.00  0.00    -0.047 A 
ATOM      5  C   UNL     1     -16.746   5.333 -15.062  0.00  0.00    +0.044 C 
ATOM      6  C   UNL     1     -15.206   4.347 -16.908  0.00  0.00    -0.040 A 
ATOM      7  C   UNL     1     -16.426   3.764 -17.637  0.00  0.00    +0.044 C 
ATOM      8  C   UNL     1     -13.858   3.991 -17.429  0.00  0.00    -0.011 A 
ENDROOT
BRANCH   8   9
ATOM      9  C   UNL     1     -13.392   4.353 -18.917  0.00  0.00    -0.011 A 
ATOM     10  C   UNL     1     -13.746   3.499 -20.089  0.00  0.00    -0.040 A 
ATOM     11  C   UNL     1     -13.278   2.033 -20.067  0.00  0.00    +0.044 C 
ATOM     12  C   UNL     1     -13.931   3.977 -21.427  0.00  0.00    -0.047 A 
ATOM     13  C   UNL     1     -14.600   3.212 -22.531  0.00  0.00    +0.044 C 
ATOM     14  C   UNL     1     -13.281   5.198 -21.633  0.00  0.00    +0.004 A 
ATOM     15  C   UNL     1     -12.550   5.867 -20.601  0.00  0.00    +0.004 A 
ATOM     16  C   UNL     1     -12.594   5.507 -19.220  0.00  0.00    -0.038 A 
BRANCH  16  17
ATOM     17  C   UNL     1     -11.925   6.272 -18.117  0.00  0.00    +0.050 C 
BRANCH  17  18
ATOM     18  C   UNL     1     -13.036   7.304 -17.817  0.00  0.00    +0.082 C 
BRANCH  18  19
ATOM     19  N   UNL     1     -14.098   8.254 -17.519  0.00  0.00    -0.330 NA
ATOM     20  H   UNL     1     -14.158   8.391 -16.511  0.00  0.00    +0.118 HD
ATOM     21  H   UNL     1     -13.894   9.144 -17.973  0.00  0.00    +0.118 HD
ENDBRANCH  18  19
ENDBRANCH  17  18
ENDBRANCH  16  17
ENDBRANCH   8   9
BRANCH   1  22
ATOM     22  C   UNL     1     -11.748   2.627 -16.984  0.00  0.00    +0.050 C 
BRANCH  22  23
ATOM     23  C   UNL     1     -10.879   1.881 -16.015  0.00  0.00    +0.082 C 
BRANCH  23  24
ATOM     24  N   UNL     1     -10.009   1.136 -15.046  0.00  0.00    -0.330 NA
ATOM     25  H   UNL     1      -9.064   1.064 -15.423  0.00  0.00    +0.118 HD
ATOM     26  H   UNL     1      -9.983   1.637 -14.158  0.00  0.00    +0.118 HD
ENDBRANCH  23  24
ENDBRANCH  22  23
ENDBRANCH   1  22
TORSDOF 7
ENDMDL
