MODEL 1
REMARK VINA RESULT:      -6.4      0.000      0.000
REMARK  Name = min_compound927.pdb
REMARK  8 active torsions:
REMARK  status: ('A' for Active; 'I' for Inactive)
REMARK    1  A    between atoms: _1  and  _16
REMARK    2  A    between atoms: _2  and  _10
REMARK    3  A    between atoms: _9  and  _11
REMARK    4  A    between atoms: _10  and  _13
REMARK    5  A    between atoms: _11  and  _15
REMARK    6  A    between atoms: _12  and  _15
REMARK    7  A    between atoms: _12  and  _19
REMARK    8  A    between atoms: _12  and  _20
REMARK                            x       y       z     vdW  Elec       q    Type
REMARK                         _______ _______ _______ _____ _____    ______ ____
ROOT
ATOM      1  C   UNL     1     -16.477   4.840 -11.779  0.00  0.00    +0.280 A 
ATOM      2  C   UNL     1     -15.498   5.049 -12.762  0.00  0.00    +0.107 A 
ATOM      3  C   UNL     1     -15.344   4.135 -13.806  0.00  0.00    +0.037 A 
ATOM      4  N   UNL     1     -14.405   4.404 -14.812  0.00  0.00    -0.339 N 
ATOM      5  H   UNL     1     -13.600   4.918 -14.460  0.00  0.00    +0.146 HD
ATOM      6  C   UNL     1     -14.032   3.279 -15.683  0.00  0.00    +0.084 C 
ATOM      7  C   UNL     1     -15.305   2.590 -16.187  0.00  0.00    +0.028 C 
ATOM      8  C   UNL     1     -16.106   2.046 -15.010  0.00  0.00    +0.039 C 
ATOM      9  C   UNL     1     -16.235   3.052 -13.894  0.00  0.00    -0.026 A 
ATOM     10  C   UNL     1     -17.219   2.858 -12.905  0.00  0.00    +0.018 A 
ATOM     11  C   UNL     1     -17.362   3.749 -11.832  0.00  0.00    +0.055 A 
ENDROOT
BRANCH   1  12
ATOM     12  N   UNL     1     -16.518   5.787 -10.671  0.00  0.00    +0.080 N 
ATOM     13  O   UNL     1     -15.978   5.446  -9.608  0.00  0.00    +0.041 OA
ATOM     14  O   UNL     1     -17.151   6.840 -10.844  0.00  0.00    -0.576 OA
ENDBRANCH   1  12
BRANCH   6  15
ATOM     15  C   UNL     1     -13.171   3.813 -16.862  0.00  0.00    +0.103 C 
BRANCH  15  16
ATOM     16  N   UNL     1     -11.921   3.059 -17.050  0.00  0.00    -0.312 NA
ATOM     17  H   UNL     1     -11.332   3.528 -17.738  0.00  0.00    +0.122 HD
BRANCH  16  18
ATOM     18  C   UNL     1     -11.148   2.909 -15.803  0.00  0.00    +0.048 C 
ATOM     19  C   UNL     1     -10.181   4.098 -15.696  0.00  0.00    +0.023 C 
ATOM     20  C   UNL     1     -10.469   1.575 -15.704  0.00  0.00    +0.023 C 
ENDBRANCH  16  18
ENDBRANCH  15  16
ENDBRANCH   6  15
BRANCH  11  21
ATOM     21  C   UNL     1     -18.435   3.512 -10.808  0.00  0.00    +0.197 C 
BRANCH  21  22
ATOM     22  O   UNL     1     -17.859   2.877  -9.678  0.00  0.00    -0.390 OA
ATOM     23  H   UNL     1     -17.690   1.952  -9.929  0.00  0.00    +0.210 HD
ENDBRANCH  21  22
ENDBRANCH  11  21
TORSDOF 6
ENDMDL
MODEL 2
REMARK VINA RESULT:      -5.9      3.440      4.810
REMARK  Name = min_compound927.pdb
REMARK  8 active torsions:
REMARK  status: ('A' for Active; 'I' for Inactive)
REMARK    1  A    between atoms: _1  and  _16
REMARK    2  A    between atoms: _2  and  _10
REMARK    3  A    between atoms: _9  and  _11
REMARK    4  A    between atoms: _10  and  _13
REMARK    5  A    between atoms: _11  and  _15
REMARK    6  A    between atoms: _12  and  _15
REMARK    7  A    between atoms: _12  and  _19
REMARK    8  A    between atoms: _12  and  _20
REMARK                            x       y       z     vdW  Elec       q    Type
REMARK                         _______ _______ _______ _____ _____    ______ ____
ROOT
ATOM      1  C   UNL     1     -16.304   7.532 -15.087  0.00  0.00    +0.280 A 
ATOM      2  C   UNL     1     -15.759   6.275 -15.389  0.00  0.00    +0.107 A 
ATOM      3  C   UNL     1     -14.787   6.150 -16.383  0.00  0.00    +0.037 A 
ATOM      4  N   UNL     1     -14.211   4.893 -16.616  0.00  0.00    -0.339 N 
ATOM      5  H   UNL     1     -14.864   4.132 -16.442  0.00  0.00    +0.146 HD
ATOM      6  C   UNL     1     -13.466   4.734 -17.875  0.00  0.00    +0.084 C 
ATOM      7  C   UNL     1     -12.491   5.906 -18.033  0.00  0.00    +0.028 C 
ATOM      8  C   UNL     1     -13.259   7.221 -18.089  0.00  0.00    +0.039 C 
ATOM      9  C   UNL     1     -14.313   7.312 -17.015  0.00  0.00    -0.026 A 
ATOM     10  C   UNL     1     -14.862   8.570 -16.696  0.00  0.00    +0.018 A 
ATOM     11  C   UNL     1     -15.863   8.705 -15.724  0.00  0.00    +0.055 A 
ENDROOT
BRANCH   1  12
ATOM     12  N   UNL     1     -17.379   7.571 -14.102  0.00  0.00    +0.080 N 
ATOM     13  O   UNL     1     -18.537   7.408 -14.514  0.00  0.00    +0.041 OA
ATOM     14  O   UNL     1     -17.069   7.835 -12.930  0.00  0.00    -0.576 OA
ENDBRANCH   1  12
BRANCH   6  15
ATOM     15  C   UNL     1     -12.717   3.372 -17.853  0.00  0.00    +0.103 C 
BRANCH  15  16
ATOM     16  N   UNL     1     -12.274   2.980 -16.505  0.00  0.00    -0.312 NA
ATOM     17  H   UNL     1     -12.670   2.074 -16.258  0.00  0.00    +0.122 HD
BRANCH  16  18
ATOM     18  C   UNL     1     -10.806   2.893 -16.386  0.00  0.00    +0.048 C 
ATOM     19  C   UNL     1     -10.462   1.570 -15.686  0.00  0.00    +0.023 C 
ATOM     20  C   UNL     1     -10.211   4.096 -15.717  0.00  0.00    +0.023 C 
ENDBRANCH  16  18
ENDBRANCH  15  16
ENDBRANCH   6  15
BRANCH  11  21
ATOM     21  C   UNL     1     -16.410  10.067 -15.405  0.00  0.00    +0.197 C 
BRANCH  21  22
ATOM     22  O   UNL     1     -15.842  10.515 -14.185  0.00  0.00    -0.390 OA
ATOM     23  H   UNL     1     -15.943  11.482 -14.163  0.00  0.00    +0.210 HD
ENDBRANCH  21  22
ENDBRANCH  11  21
TORSDOF 6
ENDMDL
MODEL 3
REMARK VINA RESULT:      -5.8      3.794      5.290
REMARK  Name = min_compound927.pdb
REMARK  8 active torsions:
REMARK  status: ('A' for Active; 'I' for Inactive)
REMARK    1  A    between atoms: _1  and  _16
REMARK    2  A    between atoms: _2  and  _10
REMARK    3  A    between atoms: _9  and  _11
REMARK    4  A    between atoms: _10  and  _13
REMARK    5  A    between atoms: _11  and  _15
REMARK    6  A    between atoms: _12  and  _15
REMARK    7  A    between atoms: _12  and  _19
REMARK    8  A    between atoms: _12  and  _20
REMARK                            x       y       z     vdW  Elec       q    Type
REMARK                         _______ _______ _______ _____ _____    ______ ____
ROOT
ATOM      1  C   UNL     1     -15.565   6.570 -16.216  0.00  0.00    +0.280 A 
ATOM      2  C   UNL     1     -15.006   5.342 -15.832  0.00  0.00    +0.107 A 
ATOM      3  C   UNL     1     -13.761   4.951 -16.326  0.00  0.00    +0.037 A 
ATOM      4  N   UNL     1     -13.195   3.750 -15.872  0.00  0.00    -0.339 N 
ATOM      5  H   UNL     1     -13.901   3.051 -15.654  0.00  0.00    +0.146 HD
ATOM      6  C   UNL     1     -12.075   3.211 -16.658  0.00  0.00    +0.084 C 
ATOM      7  C   UNL     1     -11.054   4.326 -16.907  0.00  0.00    +0.028 C 
ATOM      8  C   UNL     1     -11.698   5.459 -17.697  0.00  0.00    +0.039 C 
ATOM      9  C   UNL     1     -13.049   5.840 -17.148  0.00  0.00    -0.026 A 
ATOM     10  C   UNL     1     -13.618   7.074 -17.520  0.00  0.00    +0.018 A 
ATOM     11  C   UNL     1     -14.883   7.465 -17.058  0.00  0.00    +0.055 A 
ENDROOT
BRANCH   1  12
ATOM     12  N   UNL     1     -16.908   6.869 -15.732  0.00  0.00    +0.080 N 
ATOM     13  O   UNL     1     -17.006   7.586 -14.727  0.00  0.00    +0.041 OA
ATOM     14  O   UNL     1     -17.859   6.327 -16.317  0.00  0.00    -0.576 OA
ENDBRANCH   1  12
BRANCH   6  15
ATOM     15  C   UNL     1     -11.439   2.021 -15.886  0.00  0.00    +0.103 C 
BRANCH  15  16
ATOM     16  N   UNL     1     -11.803   0.710 -16.447  0.00  0.00    -0.312 NA
ATOM     17  H   UNL     1     -12.431   0.834 -17.240  0.00  0.00    +0.122 HD
BRANCH  16  18
ATOM     18  C   UNL     1     -10.632  -0.065 -16.899  0.00  0.00    +0.048 C 
ATOM     19  C   UNL     1     -10.102  -0.870 -15.704  0.00  0.00    +0.023 C 
ATOM     20  C   UNL     1      -9.590   0.795 -17.550  0.00  0.00    +0.023 C 
ENDBRANCH  16  18
ENDBRANCH  15  16
ENDBRANCH   6  15
BRANCH  11  21
ATOM     21  C   UNL     1     -15.444   8.797 -17.468  0.00  0.00    +0.197 C 
BRANCH  21  22
ATOM     22  O   UNL     1     -15.329   9.697 -16.378  0.00  0.00    -0.390 OA
ATOM     23  H   UNL     1     -16.206   9.750 -15.960  0.00  0.00    +0.210 HD
ENDBRANCH  21  22
ENDBRANCH  11  21
TORSDOF 6
ENDMDL
MODEL 4
REMARK VINA RESULT:      -5.8      6.450      7.824
REMARK  Name = min_compound927.pdb
REMARK  8 active torsions:
REMARK  status: ('A' for Active; 'I' for Inactive)
REMARK    1  A    between atoms: _1  and  _16
REMARK    2  A    between atoms: _2  and  _10
REMARK    3  A    between atoms: _9  and  _11
REMARK    4  A    between atoms: _10  and  _13
REMARK    5  A    between atoms: _11  and  _15
REMARK    6  A    between atoms: _12  and  _15
REMARK    7  A    between atoms: _12  and  _19
REMARK    8  A    between atoms: _12  and  _20
REMARK                            x       y       z     vdW  Elec       q    Type
REMARK                         _______ _______ _______ _____ _____    ______ ____
ROOT
ATOM      1  C   UNL     1     -13.670   4.489 -20.301  0.00  0.00    +0.280 A 
ATOM      2  C   UNL     1     -13.380   3.454 -19.400  0.00  0.00    +0.107 A 
ATOM      3  C   UNL     1     -12.482   3.665 -18.352  0.00  0.00    +0.037 A 
ATOM      4  N   UNL     1     -12.263   2.635 -17.426  0.00  0.00    -0.339 N 
ATOM      5  H   UNL     1     -12.347   1.713 -17.849  0.00  0.00    +0.146 HD
ATOM      6  C   UNL     1     -11.078   2.765 -16.564  0.00  0.00    +0.084 C 
ATOM      7  C   UNL     1     -11.056   4.169 -15.950  0.00  0.00    +0.028 C 
ATOM      8  C   UNL     1     -10.971   5.219 -17.051  0.00  0.00    +0.039 C 
ATOM      9  C   UNL     1     -11.939   4.948 -18.174  0.00  0.00    -0.026 A 
ATOM     10  C   UNL     1     -12.246   5.982 -19.081  0.00  0.00    +0.018 A 
ATOM     11  C   UNL     1     -13.119   5.774 -20.158  0.00  0.00    +0.055 A 
ENDROOT
BRANCH   1  12
ATOM     12  N   UNL     1     -14.546   4.167 -21.422  0.00  0.00    +0.080 N 
ATOM     13  O   UNL     1     -15.750   4.433 -21.300  0.00  0.00    +0.041 OA
ATOM     14  O   UNL     1     -14.038   3.585 -22.393  0.00  0.00    -0.576 OA
ENDBRANCH   1  12
BRANCH   6  15
ATOM     15  C   UNL     1     -11.127   1.666 -15.465  0.00  0.00    +0.103 C 
BRANCH  15  16
ATOM     16  N   UNL     1      -9.857   0.936 -15.324  0.00  0.00    -0.312 NA
ATOM     17  H   UNL     1      -9.678   0.736 -14.341  0.00  0.00    +0.122 HD
BRANCH  16  18
ATOM     18  C   UNL     1      -9.841  -0.337 -16.068  0.00  0.00    +0.048 C 
ATOM     19  C   UNL     1      -9.128  -0.100 -17.407  0.00  0.00    +0.023 C 
ATOM     20  C   UNL     1     -11.210  -0.933 -16.217  0.00  0.00    +0.023 C 
ENDBRANCH  16  18
ENDBRANCH  15  16
ENDBRANCH   6  15
BRANCH  11  21
ATOM     21  C   UNL     1     -13.430   6.909 -21.092  0.00  0.00    +0.197 C 
BRANCH  21  22
ATOM     22  O   UNL     1     -14.744   7.373 -20.828  0.00  0.00    -0.390 OA
ATOM     23  H   UNL     1     -15.158   7.556 -21.690  0.00  0.00    +0.210 HD
ENDBRANCH  21  22
ENDBRANCH  11  21
TORSDOF 6
ENDMDL
MODEL 5
REMARK VINA RESULT:      -5.8      1.158      1.697
REMARK  Name = min_compound927.pdb
REMARK  8 active torsions:
REMARK  status: ('A' for Active; 'I' for Inactive)
REMARK    1  A    between atoms: _1  and  _16
REMARK    2  A    between atoms: _2  and  _10
REMARK    3  A    between atoms: _9  and  _11
REMARK    4  A    between atoms: _10  and  _13
REMARK    5  A    between atoms: _11  and  _15
REMARK    6  A    between atoms: _12  and  _15
REMARK    7  A    between atoms: _12  and  _19
REMARK    8  A    between atoms: _12  and  _20
REMARK                            x       y       z     vdW  Elec       q    Type
REMARK                         _______ _______ _______ _____ _____    ______ ____
ROOT
ATOM      1  C   UNL     1     -16.530   4.842 -11.783  0.00  0.00    +0.280 A 
ATOM      2  C   UNL     1     -15.519   5.022 -12.739  0.00  0.00    +0.107 A 
ATOM      3  C   UNL     1     -15.357   4.098 -13.773  0.00  0.00    +0.037 A 
ATOM      4  N   UNL     1     -14.383   4.338 -14.753  0.00  0.00    -0.339 N 
ATOM      5  H   UNL     1     -13.577   4.835 -14.381  0.00  0.00    +0.146 HD
ATOM      6  C   UNL     1     -14.013   3.199 -15.606  0.00  0.00    +0.084 C 
ATOM      7  C   UNL     1     -15.287   2.538 -16.143  0.00  0.00    +0.028 C 
ATOM      8  C   UNL     1     -16.134   2.020 -14.987  0.00  0.00    +0.039 C 
ATOM      9  C   UNL     1     -16.270   3.036 -13.880  0.00  0.00    -0.026 A 
ATOM     10  C   UNL     1     -17.287   2.871 -12.919  0.00  0.00    +0.018 A 
ATOM     11  C   UNL     1     -17.439   3.773 -11.856  0.00  0.00    +0.055 A 
ENDROOT
BRANCH   1  12
ATOM     12  N   UNL     1     -16.580   5.797 -10.682  0.00  0.00    +0.080 N 
ATOM     13  O   UNL     1     -17.140   6.882 -10.891  0.00  0.00    +0.041 OA
ATOM     14  O   UNL     1     -15.996   5.487  -9.632  0.00  0.00    -0.576 OA
ENDBRANCH   1  12
BRANCH   6  15
ATOM     15  C   UNL     1     -13.106   3.705 -16.763  0.00  0.00    +0.103 C 
BRANCH  15  16
ATOM     16  N   UNL     1     -13.232   5.152 -17.003  0.00  0.00    -0.312 NA
ATOM     17  H   UNL     1     -13.585   5.613 -16.166  0.00  0.00    +0.122 HD
BRANCH  16  18
ATOM     18  C   UNL     1     -11.953   5.785 -17.377  0.00  0.00    +0.048 C 
ATOM     19  C   UNL     1     -11.948   5.987 -18.900  0.00  0.00    +0.023 C 
ATOM     20  C   UNL     1     -10.765   5.022 -16.871  0.00  0.00    +0.023 C 
ENDBRANCH  16  18
ENDBRANCH  15  16
ENDBRANCH   6  15
BRANCH  11  21
ATOM     21  C   UNL     1     -18.546   3.567 -10.862  0.00  0.00    +0.197 C 
BRANCH  21  22
ATOM     22  O   UNL     1     -18.004   2.992  -9.684  0.00  0.00    -0.390 OA
ATOM     23  H   UNL     1     -17.058   3.217  -9.668  0.00  0.00    +0.210 HD
ENDBRANCH  21  22
ENDBRANCH  11  21
TORSDOF 6
ENDMDL
MODEL 6
REMARK VINA RESULT:      -5.7     11.008     13.520
REMARK  Name = min_compound927.pdb
REMARK  8 active torsions:
REMARK  status: ('A' for Active; 'I' for Inactive)
REMARK    1  A    between atoms: _1  and  _16
REMARK    2  A    between atoms: _2  and  _10
REMARK    3  A    between atoms: _9  and  _11
REMARK    4  A    between atoms: _10  and  _13
REMARK    5  A    between atoms: _11  and  _15
REMARK    6  A    between atoms: _12  and  _15
REMARK    7  A    between atoms: _12  and  _19
REMARK    8  A    between atoms: _12  and  _20
REMARK                            x       y       z     vdW  Elec       q    Type
REMARK                         _______ _______ _______ _____ _____    ______ ____
ROOT
ATOM      1  C   UNL     1     -14.570  -4.810  -1.640  0.00  0.00    +0.280 A 
ATOM      2  C   UNL     1     -15.629  -4.254  -2.374  0.00  0.00    +0.107 A 
ATOM      3  C   UNL     1     -15.621  -2.897  -2.700  0.00  0.00    +0.037 A 
ATOM      4  N   UNL     1     -16.657  -2.382  -3.492  0.00  0.00    -0.339 N 
ATOM      5  H   UNL     1     -17.539  -2.864  -3.333  0.00  0.00    +0.146 HD
ATOM      6  C   UNL     1     -16.800  -0.918  -3.521  0.00  0.00    +0.084 C 
ATOM      7  C   UNL     1     -15.432  -0.285  -3.797  0.00  0.00    +0.028 C 
ATOM      8  C   UNL     1     -14.452  -0.655  -2.690  0.00  0.00    +0.039 C 
ATOM      9  C   UNL     1     -14.502  -2.123  -2.350  0.00  0.00    -0.026 A 
ATOM     10  C   UNL     1     -13.441  -2.695  -1.621  0.00  0.00    +0.018 A 
ATOM     11  C   UNL     1     -13.452  -4.049  -1.257  0.00  0.00    +0.055 A 
ENDROOT
BRANCH   1  12
ATOM     12  N   UNL     1     -14.691  -6.212  -1.258  0.00  0.00    +0.080 N 
ATOM     13  O   UNL     1     -14.226  -7.058  -2.035  0.00  0.00    +0.041 OA
ATOM     14  O   UNL     1     -15.316  -6.467  -0.217  0.00  0.00    -0.576 OA
ENDBRANCH   1  12
BRANCH   6  15
ATOM     15  C   UNL     1     -17.835  -0.530  -4.613  0.00  0.00    +0.103 C 
BRANCH  15  16
ATOM     16  N   UNL     1     -17.788  -1.411  -5.791  0.00  0.00    -0.312 NA
ATOM     17  H   UNL     1     -18.683  -1.886  -5.906  0.00  0.00    +0.122 HD
BRANCH  16  18
ATOM     18  C   UNL     1     -17.484  -0.685  -7.039  0.00  0.00    +0.048 C 
ATOM     19  C   UNL     1     -15.993  -0.880  -7.354  0.00  0.00    +0.023 C 
ATOM     20  C   UNL     1     -17.899   0.755  -6.982  0.00  0.00    +0.023 C 
ENDBRANCH  16  18
ENDBRANCH  15  16
ENDBRANCH   6  15
BRANCH  11  21
ATOM     21  C   UNL     1     -12.292  -4.622  -0.493  0.00  0.00    +0.197 C 
BRANCH  21  22
ATOM     22  O   UNL     1     -11.232  -3.680  -0.495  0.00  0.00    -0.390 OA
ATOM     23  H   UNL     1     -11.132  -3.368  -1.411  0.00  0.00    +0.210 HD
ENDBRANCH  21  22
ENDBRANCH  11  21
TORSDOF 6
ENDMDL
MODEL 7
REMARK VINA RESULT:      -5.7      3.957      6.552
REMARK  Name = min_compound927.pdb
REMARK  8 active torsions:
REMARK  status: ('A' for Active; 'I' for Inactive)
REMARK    1  A    between atoms: _1  and  _16
REMARK    2  A    between atoms: _2  and  _10
REMARK    3  A    between atoms: _9  and  _11
REMARK    4  A    between atoms: _10  and  _13
REMARK    5  A    between atoms: _11  and  _15
REMARK    6  A    between atoms: _12  and  _15
REMARK    7  A    between atoms: _12  and  _19
REMARK    8  A    between atoms: _12  and  _20
REMARK                            x       y       z     vdW  Elec       q    Type
REMARK                         _______ _______ _______ _____ _____    ______ ____
ROOT
ATOM      1  C   UNL     1     -12.549   3.144 -16.078  0.00  0.00    +0.280 A 
ATOM      2  C   UNL     1     -13.316   4.117 -15.419  0.00  0.00    +0.107 A 
ATOM      3  C   UNL     1     -14.649   3.860 -15.094  0.00  0.00    +0.037 A 
ATOM      4  N   UNL     1     -15.371   4.824 -14.375  0.00  0.00    -0.339 N 
ATOM      5  H   UNL     1     -15.071   5.771 -14.593  0.00  0.00    +0.146 HD
ATOM      6  C   UNL     1     -16.834   4.673 -14.358  0.00  0.00    +0.084 C 
ATOM      7  C   UNL     1     -17.186   3.228 -13.990  0.00  0.00    +0.028 C 
ATOM      8  C   UNL     1     -16.613   2.270 -15.027  0.00  0.00    +0.039 C 
ATOM      9  C   UNL     1     -15.180   2.589 -15.369  0.00  0.00    -0.026 A 
ATOM     10  C   UNL     1     -14.397   1.618 -16.023  0.00  0.00    +0.018 A 
ATOM     11  C   UNL     1     -13.067   1.874 -16.385  0.00  0.00    +0.055 A 
ENDROOT
BRANCH   1  12
ATOM     12  N   UNL     1     -11.194   3.517 -16.466  0.00  0.00    +0.080 N 
ATOM     13  O   UNL     1     -11.010   3.860 -17.642  0.00  0.00    +0.041 OA
ATOM     14  O   UNL     1     -10.303   3.398 -15.610  0.00  0.00    -0.576 OA
ENDBRANCH   1  12
BRANCH   6  15
ATOM     15  C   UNL     1     -17.437   5.681 -13.339  0.00  0.00    +0.103 C 
BRANCH  15  16
ATOM     16  N   UNL     1     -16.471   6.111 -12.314  0.00  0.00    -0.312 NA
ATOM     17  H   UNL     1     -16.635   7.087 -12.070  0.00  0.00    +0.122 HD
BRANCH  16  18
ATOM     18  C   UNL     1     -16.546   5.305 -11.081  0.00  0.00    +0.048 C 
ATOM     19  C   UNL     1     -16.922   6.240  -9.922  0.00  0.00    +0.023 C 
ATOM     20  C   UNL     1     -15.293   4.518 -10.832  0.00  0.00    +0.023 C 
ENDBRANCH  16  18
ENDBRANCH  15  16
ENDBRANCH   6  15
BRANCH  11  21
ATOM     21  C   UNL     1     -12.264   0.804 -17.068  0.00  0.00    +0.197 C 
BRANCH  21  22
ATOM     22  O   UNL     1     -12.258   1.056 -18.464  0.00  0.00    -0.390 OA
ATOM     23  H   UNL     1     -13.137   1.403 -18.693  0.00  0.00    +0.210 HD
ENDBRANCH  21  22
ENDBRANCH  11  21
TORSDOF 6
ENDMDL
MODEL 8
REMARK VINA RESULT:      -5.7      6.267      7.676
REMARK  Name = min_compound927.pdb
REMARK  8 active torsions:
REMARK  status: ('A' for Active; 'I' for Inactive)
REMARK    1  A    between atoms: _1  and  _16
REMARK    2  A    between atoms: _2  and  _10
REMARK    3  A    between atoms: _9  and  _11
REMARK    4  A    between atoms: _10  and  _13
REMARK    5  A    between atoms: _11  and  _15
REMARK    6  A    between atoms: _12  and  _15
REMARK    7  A    between atoms: _12  and  _19
REMARK    8  A    between atoms: _12  and  _20
REMARK                            x       y       z     vdW  Elec       q    Type
REMARK                         _______ _______ _______ _____ _____    ______ ____
ROOT
ATOM      1  C   UNL     1     -11.706   1.432 -17.178  0.00  0.00    +0.280 A 
ATOM      2  C   UNL     1     -12.348   2.132 -18.210  0.00  0.00    +0.107 A 
ATOM      3  C   UNL     1     -12.400   3.527 -18.187  0.00  0.00    +0.037 A 
ATOM      4  N   UNL     1     -12.987   4.204 -19.266  0.00  0.00    -0.339 N 
ATOM      5  H   UNL     1     -13.745   3.671 -19.687  0.00  0.00    +0.146 HD
ATOM      6  C   UNL     1     -13.330   5.617 -19.049  0.00  0.00    +0.084 C 
ATOM      7  C   UNL     1     -12.122   6.340 -18.444  0.00  0.00    +0.028 C 
ATOM      8  C   UNL     1     -11.759   5.718 -17.100  0.00  0.00    +0.039 C 
ATOM      9  C   UNL     1     -11.733   4.212 -17.158  0.00  0.00    -0.026 A 
ATOM     10  C   UNL     1     -11.084   3.497 -16.131  0.00  0.00    +0.018 A 
ATOM     11  C   UNL     1     -11.054   2.095 -16.124  0.00  0.00    +0.055 A 
ENDROOT
BRANCH   1  12
ATOM     12  N   UNL     1     -11.771  -0.024 -17.222  0.00  0.00    +0.080 N 
ATOM     13  O   UNL     1     -12.647  -0.578 -16.542  0.00  0.00    +0.041 OA
ATOM     14  O   UNL     1     -10.901  -0.614 -17.882  0.00  0.00    -0.576 OA
ENDBRANCH   1  12
BRANCH   6  15
ATOM     15  C   UNL     1     -13.751   6.252 -20.404  0.00  0.00    +0.103 C 
BRANCH  15  16
ATOM     16  N   UNL     1     -12.956   5.761 -21.541  0.00  0.00    -0.312 NA
ATOM     17  H   UNL     1     -13.513   5.117 -22.103  0.00  0.00    +0.122 HD
BRANCH  16  18
ATOM     18  C   UNL     1     -12.477   6.845 -22.418  0.00  0.00    +0.048 C 
ATOM     19  C   UNL     1     -11.216   7.450 -21.783  0.00  0.00    +0.023 C 
ATOM     20  C   UNL     1     -13.542   7.859 -22.714  0.00  0.00    +0.023 C 
ENDBRANCH  16  18
ENDBRANCH  15  16
ENDBRANCH   6  15
BRANCH  11  21
ATOM     21  C   UNL     1     -10.338   1.374 -15.018  0.00  0.00    +0.197 C 
BRANCH  21  22
ATOM     22  O   UNL     1      -9.627   0.278 -15.571  0.00  0.00    -0.390 OA
ATOM     23  H   UNL     1     -10.272  -0.438 -15.706  0.00  0.00    +0.210 HD
ENDBRANCH  21  22
ENDBRANCH  11  21
TORSDOF 6
ENDMDL
MODEL 9
REMARK VINA RESULT:      -5.6      9.456     12.007
REMARK  Name = min_compound927.pdb
REMARK  8 active torsions:
REMARK  status: ('A' for Active; 'I' for Inactive)
REMARK    1  A    between atoms: _1  and  _16
REMARK    2  A    between atoms: _2  and  _10
REMARK    3  A    between atoms: _9  and  _11
REMARK    4  A    between atoms: _10  and  _13
REMARK    5  A    between atoms: _11  and  _15
REMARK    6  A    between atoms: _12  and  _15
REMARK    7  A    between atoms: _12  and  _19
REMARK    8  A    between atoms: _12  and  _20
REMARK                            x       y       z     vdW  Elec       q    Type
REMARK                         _______ _______ _______ _____ _____    ______ ____
ROOT
ATOM      1  C   UNL     1     -16.383  -2.778  -2.180  0.00  0.00    +0.280 A 
ATOM      2  C   UNL     1     -16.855  -1.686  -2.924  0.00  0.00    +0.107 A 
ATOM      3  C   UNL     1     -16.008  -0.615  -3.216  0.00  0.00    +0.037 A 
ATOM      4  N   UNL     1     -16.485   0.431  -4.019  0.00  0.00    -0.339 N 
ATOM      5  H   UNL     1     -17.482   0.588  -3.892  0.00  0.00    +0.146 HD
ATOM      6  C   UNL     1     -15.701   1.676  -4.013  0.00  0.00    +0.084 C 
ATOM      7  C   UNL     1     -14.223   1.340  -4.240  0.00  0.00    +0.028 C 
ATOM      8  C   UNL     1     -13.713   0.442  -3.120  0.00  0.00    +0.039 C 
ATOM      9  C   UNL     1     -14.662  -0.690  -2.819  0.00  0.00    -0.026 A 
ATOM     10  C   UNL     1     -14.198  -1.796  -2.080  0.00  0.00    +0.018 A 
ATOM     11  C   UNL     1     -15.048  -2.863  -1.751  0.00  0.00    +0.055 A 
ENDROOT
BRANCH   1  12
ATOM     12  N   UNL     1     -17.350  -3.814  -1.838  0.00  0.00    +0.080 N 
ATOM     13  O   UNL     1     -17.720  -4.573  -2.745  0.00  0.00    +0.041 OA
ATOM     14  O   UNL     1     -17.791  -3.822  -0.678  0.00  0.00    -0.576 OA
ENDBRANCH   1  12
BRANCH   6  15
ATOM     15  C   UNL     1     -16.245   2.623  -5.119  0.00  0.00    +0.103 C 
BRANCH  15  16
ATOM     16  N   UNL     1     -16.904   1.903  -6.221  0.00  0.00    -0.312 NA
ATOM     17  H   UNL     1     -17.661   2.470  -6.602  0.00  0.00    +0.122 HD
BRANCH  16  18
ATOM     18  C   UNL     1     -15.980   1.564  -7.319  0.00  0.00    +0.048 C 
ATOM     19  C   UNL     1     -16.341   2.433  -8.533  0.00  0.00    +0.023 C 
ATOM     20  C   UNL     1     -15.960   0.095  -7.620  0.00  0.00    +0.023 C 
ENDBRANCH  16  18
ENDBRANCH  15  16
ENDBRANCH   6  15
BRANCH  11  21
ATOM     21  C   UNL     1     -14.508  -4.030  -0.975  0.00  0.00    +0.197 C 
BRANCH  21  22
ATOM     22  O   UNL     1     -14.837  -3.861   0.395  0.00  0.00    -0.390 OA
ATOM     23  H   UNL     1     -15.691  -3.396   0.425  0.00  0.00    +0.210 HD
ENDBRANCH  21  22
ENDBRANCH  11  21
TORSDOF 6
ENDMDL
