MODEL 1
REMARK VINA RESULT:      -6.6      0.000      0.000
REMARK  Name = min_compound930.pdb
REMARK  6 active torsions:
REMARK  status: ('A' for Active; 'I' for Inactive)
REMARK    1  A    between atoms: _3  and  _19
REMARK    2  A    between atoms: _16  and  _18
REMARK    3  A    between atoms: _18  and  _21
REMARK    4  A    between atoms: _19  and  _20
REMARK    5  A    between atoms: _21  and  _22
REMARK    6  A    between atoms: _22  and  _23
REMARK                            x       y       z     vdW  Elec       q    Type
REMARK                         _______ _______ _______ _____ _____    ______ ____
ROOT
ATOM      1  C   UNL     1     -15.639   8.628 -14.868  0.00  0.00    +0.004 A 
ATOM      2  C   UNL     1     -16.223   7.561 -14.179  0.00  0.00    +0.049 A 
ATOM      3  C   UNL     1     -16.065   6.250 -14.639  0.00  0.00    +0.162 A 
ATOM      4  C   UNL     1     -15.300   6.025 -15.796  0.00  0.00    +0.175 A 
ATOM      5  O   UNL     1     -15.223   4.744 -16.297  0.00  0.00    -0.450 OA
ATOM      6  C   UNL     1     -13.975   4.166 -16.420  0.00  0.00    +0.149 A 
ATOM      7  C   UNL     1     -13.948   2.820 -16.017  0.00  0.00    +0.049 A 
ATOM      8  C   UNL     1     -12.780   2.066 -16.124  0.00  0.00    +0.019 A 
ATOM      9  C   UNL     1     -11.628   2.660 -16.634  0.00  0.00    +0.061 A 
ATOM     10  C   UNL     1     -11.644   4.011 -17.007  0.00  0.00    +0.041 A 
ATOM     11  C   UNL     1     -12.828   4.770 -16.975  0.00  0.00    +0.071 A 
ATOM     12  N   UNL     1     -12.730   6.103 -17.408  0.00  0.00    -0.337 N 
ATOM     13  H   UNL     1     -11.999   6.237 -18.098  0.00  0.00    +0.147 HD
ATOM     14  C   UNL     1     -13.955   6.805 -17.748  0.00  0.00    +0.140 C 
ATOM     15  C   UNL     1     -14.733   7.092 -16.504  0.00  0.00    +0.015 A 
ATOM     16  C   UNL     1     -14.897   8.396 -16.024  0.00  0.00    +0.009 A 
ENDROOT
BRANCH   3  17
ATOM     17  O   UNL     1     -16.611   5.140 -14.046  0.00  0.00    -0.491 OA
ATOM     18  C   UNL     1     -15.946   4.622 -12.902  0.00  0.00    +0.277 C 
ENDBRANCH   3  17
BRANCH   9  19
ATOM     19  C   UNL     1     -10.387   1.851 -16.732  0.00  0.00    +0.339 C 
ATOM     20  O   UNL     1      -9.719   1.841 -17.756  0.00  0.00    -0.245 OA
BRANCH  19  21
ATOM     21  O   UNL     1     -10.073   1.097 -15.646  0.00  0.00    -0.461 OA
BRANCH  21  22
ATOM     22  C   UNL     1      -9.748  -0.295 -15.823  0.00  0.00    +0.229 C 
ATOM     23  C   UNL     1     -11.016  -1.027 -16.222  0.00  0.00    +0.048 C 
ENDBRANCH  21  22
ENDBRANCH  19  21
ENDBRANCH   9  19
TORSDOF 4
ENDMDL
MODEL 2
REMARK VINA RESULT:      -6.4      4.015      5.798
REMARK  Name = min_compound930.pdb
REMARK  6 active torsions:
REMARK  status: ('A' for Active; 'I' for Inactive)
REMARK    1  A    between atoms: _3  and  _19
REMARK    2  A    between atoms: _16  and  _18
REMARK    3  A    between atoms: _18  and  _21
REMARK    4  A    between atoms: _19  and  _20
REMARK    5  A    between atoms: _21  and  _22
REMARK    6  A    between atoms: _22  and  _23
REMARK                            x       y       z     vdW  Elec       q    Type
REMARK                         _______ _______ _______ _____ _____    ______ ____
ROOT
ATOM      1  C   UNL     1     -13.048   4.430 -24.136  0.00  0.00    +0.004 A 
ATOM      2  C   UNL     1     -12.771   5.584 -23.397  0.00  0.00    +0.049 A 
ATOM      3  C   UNL     1     -13.011   5.618 -22.020  0.00  0.00    +0.162 A 
ATOM      4  C   UNL     1     -13.521   4.470 -21.393  0.00  0.00    +0.175 A 
ATOM      5  O   UNL     1     -13.843   4.537 -20.055  0.00  0.00    -0.450 OA
ATOM      6  C   UNL     1     -13.215   3.663 -19.188  0.00  0.00    +0.149 A 
ATOM      7  C   UNL     1     -12.817   4.268 -17.985  0.00  0.00    +0.049 A 
ATOM      8  C   UNL     1     -12.216   3.520 -16.974  0.00  0.00    +0.019 A 
ATOM      9  C   UNL     1     -12.005   2.156 -17.167  0.00  0.00    +0.061 A 
ATOM     10  C   UNL     1     -12.373   1.556 -18.379  0.00  0.00    +0.041 A 
ATOM     11  C   UNL     1     -13.045   2.276 -19.382  0.00  0.00    +0.071 A 
ATOM     12  N   UNL     1     -13.397   1.561 -20.539  0.00  0.00    -0.337 N 
ATOM     13  H   UNL     1     -13.556   0.576 -20.356  0.00  0.00    +0.147 HD
ATOM     14  C   UNL     1     -14.397   2.133 -21.423  0.00  0.00    +0.140 C 
ATOM     15  C   UNL     1     -13.823   3.319 -22.131  0.00  0.00    +0.015 A 
ATOM     16  C   UNL     1     -13.571   3.302 -23.507  0.00  0.00    +0.009 A 
ENDROOT
BRANCH   3  17
ATOM     17  O   UNL     1     -12.790   6.705 -21.213  0.00  0.00    -0.491 OA
ATOM     18  C   UNL     1     -11.454   6.936 -20.787  0.00  0.00    +0.277 C 
ENDBRANCH   3  17
BRANCH   9  19
ATOM     19  C   UNL     1     -11.353   1.372 -16.089  0.00  0.00    +0.339 C 
ATOM     20  O   UNL     1     -10.848   1.926 -15.122  0.00  0.00    -0.245 OA
BRANCH  19  21
ATOM     21  O   UNL     1     -11.308   0.026 -16.265  0.00  0.00    -0.461 OA
BRANCH  21  22
ATOM     22  C   UNL     1     -10.045  -0.659 -16.159  0.00  0.00    +0.229 C 
ATOM     23  C   UNL     1      -9.195  -0.269 -17.354  0.00  0.00    +0.048 C 
ENDBRANCH  21  22
ENDBRANCH  19  21
ENDBRANCH   9  19
TORSDOF 4
ENDMDL
MODEL 3
REMARK VINA RESULT:      -6.2      2.039      3.412
REMARK  Name = min_compound930.pdb
REMARK  6 active torsions:
REMARK  status: ('A' for Active; 'I' for Inactive)
REMARK    1  A    between atoms: _3  and  _19
REMARK    2  A    between atoms: _16  and  _18
REMARK    3  A    between atoms: _18  and  _21
REMARK    4  A    between atoms: _19  and  _20
REMARK    5  A    between atoms: _21  and  _22
REMARK    6  A    between atoms: _22  and  _23
REMARK                            x       y       z     vdW  Elec       q    Type
REMARK                         _______ _______ _______ _____ _____    ______ ____
ROOT
ATOM      1  C   UNL     1     -15.950   7.845 -17.759  0.00  0.00    +0.004 A 
ATOM      2  C   UNL     1     -14.693   8.086 -18.321  0.00  0.00    +0.049 A 
ATOM      3  C   UNL     1     -13.581   7.343 -17.915  0.00  0.00    +0.162 A 
ATOM      4  C   UNL     1     -13.753   6.342 -16.943  0.00  0.00    +0.175 A 
ATOM      5  O   UNL     1     -12.640   5.676 -16.479  0.00  0.00    -0.450 OA
ATOM      6  C   UNL     1     -12.596   4.302 -16.623  0.00  0.00    +0.149 A 
ATOM      7  C   UNL     1     -11.338   3.830 -17.034  0.00  0.00    +0.049 A 
ATOM      8  C   UNL     1     -11.101   2.464 -17.178  0.00  0.00    +0.019 A 
ATOM      9  C   UNL     1     -12.128   1.560 -16.912  0.00  0.00    +0.061 A 
ATOM     10  C   UNL     1     -13.392   2.031 -16.533  0.00  0.00    +0.041 A 
ATOM     11  C   UNL     1     -13.633   3.398 -16.312  0.00  0.00    +0.071 A 
ATOM     12  N   UNL     1     -14.929   3.748 -15.898  0.00  0.00    -0.337 N 
ATOM     13  H   UNL     1     -15.384   3.009 -15.373  0.00  0.00    +0.147 HD
ATOM     14  C   UNL     1     -15.130   5.059 -15.306  0.00  0.00    +0.140 C 
ATOM     15  C   UNL     1     -15.004   6.112 -16.360  0.00  0.00    +0.015 A 
ATOM     16  C   UNL     1     -16.107   6.862 -16.784  0.00  0.00    +0.009 A 
ENDROOT
BRANCH   3  17
ATOM     17  O   UNL     1     -12.306   7.515 -18.391  0.00  0.00    -0.491 OA
ATOM     18  C   UNL     1     -12.002   6.939 -19.654  0.00  0.00    +0.277 C 
ENDBRANCH   3  17
BRANCH   9  19
ATOM     19  C   UNL     1     -11.867   0.109 -17.081  0.00  0.00    +0.339 C 
ATOM     20  O   UNL     1     -12.564  -0.727 -16.523  0.00  0.00    -0.245 OA
BRANCH  19  21
ATOM     21  O   UNL     1     -10.792  -0.226 -17.841  0.00  0.00    -0.461 OA
BRANCH  21  22
ATOM     22  C   UNL     1      -9.477  -0.198 -17.255  0.00  0.00    +0.229 C 
ATOM     23  C   UNL     1      -9.537  -0.923 -15.924  0.00  0.00    +0.048 C 
ENDBRANCH  21  22
ENDBRANCH  19  21
ENDBRANCH   9  19
TORSDOF 4
ENDMDL
MODEL 4
REMARK VINA RESULT:      -6.1      2.735      3.229
REMARK  Name = min_compound930.pdb
REMARK  6 active torsions:
REMARK  status: ('A' for Active; 'I' for Inactive)
REMARK    1  A    between atoms: _3  and  _19
REMARK    2  A    between atoms: _16  and  _18
REMARK    3  A    between atoms: _18  and  _21
REMARK    4  A    between atoms: _19  and  _20
REMARK    5  A    between atoms: _21  and  _22
REMARK    6  A    between atoms: _22  and  _23
REMARK                            x       y       z     vdW  Elec       q    Type
REMARK                         _______ _______ _______ _____ _____    ______ ____
ROOT
ATOM      1  C   UNL     1     -15.501   8.312 -17.954  0.00  0.00    +0.004 A 
ATOM      2  C   UNL     1     -16.170   7.477 -18.855  0.00  0.00    +0.049 A 
ATOM      3  C   UNL     1     -15.540   6.338 -19.366  0.00  0.00    +0.162 A 
ATOM      4  C   UNL     1     -14.232   6.042 -18.948  0.00  0.00    +0.175 A 
ATOM      5  O   UNL     1     -13.582   4.972 -19.523  0.00  0.00    -0.450 OA
ATOM      6  C   UNL     1     -13.138   3.957 -18.697  0.00  0.00    +0.149 A 
ATOM      7  C   UNL     1     -13.370   2.676 -19.223  0.00  0.00    +0.049 A 
ATOM      8  C   UNL     1     -12.938   1.537 -18.544  0.00  0.00    +0.019 A 
ATOM      9  C   UNL     1     -12.272   1.678 -17.328  0.00  0.00    +0.061 A 
ATOM     10  C   UNL     1     -12.067   2.954 -16.787  0.00  0.00    +0.041 A 
ATOM     11  C   UNL     1     -12.430   4.118 -17.488  0.00  0.00    +0.071 A 
ATOM     12  N   UNL     1     -12.143   5.342 -16.862  0.00  0.00    -0.337 N 
ATOM     13  H   UNL     1     -11.336   5.287 -16.249  0.00  0.00    +0.147 HD
ATOM     14  C   UNL     1     -12.146   6.546 -17.675  0.00  0.00    +0.140 C 
ATOM     15  C   UNL     1     -13.549   6.886 -18.064  0.00  0.00    +0.015 A 
ATOM     16  C   UNL     1     -14.198   8.018 -17.559  0.00  0.00    +0.009 A 
ENDROOT
BRANCH   3  17
ATOM     17  O   UNL     1     -16.102   5.469 -20.266  0.00  0.00    -0.491 OA
ATOM     18  C   UNL     1     -16.894   4.413 -19.741  0.00  0.00    +0.277 C 
ENDBRANCH   3  17
BRANCH   9  19
ATOM     19  C   UNL     1     -11.828   0.458 -16.609  0.00  0.00    +0.339 C 
ATOM     20  O   UNL     1     -12.516  -0.554 -16.596  0.00  0.00    -0.245 OA
BRANCH  19  21
ATOM     21  O   UNL     1     -10.652   0.550 -15.935  0.00  0.00    -0.461 OA
BRANCH  21  22
ATOM     22  C   UNL     1      -9.639  -0.453 -16.141  0.00  0.00    +0.229 C 
ATOM     23  C   UNL     1      -9.026  -0.229 -17.511  0.00  0.00    +0.048 C 
ENDBRANCH  21  22
ENDBRANCH  19  21
ENDBRANCH   9  19
TORSDOF 4
ENDMDL
MODEL 5
REMARK VINA RESULT:      -6.1      6.782     10.362
REMARK  Name = min_compound930.pdb
REMARK  6 active torsions:
REMARK  status: ('A' for Active; 'I' for Inactive)
REMARK    1  A    between atoms: _3  and  _19
REMARK    2  A    between atoms: _16  and  _18
REMARK    3  A    between atoms: _18  and  _21
REMARK    4  A    between atoms: _19  and  _20
REMARK    5  A    between atoms: _21  and  _22
REMARK    6  A    between atoms: _22  and  _23
REMARK                            x       y       z     vdW  Elec       q    Type
REMARK                         _______ _______ _______ _____ _____    ______ ____
ROOT
ATOM      1  C   UNL     1     -14.489   2.304  -3.679  0.00  0.00    +0.004 A 
ATOM      2  C   UNL     1     -14.092   1.331  -4.602  0.00  0.00    +0.049 A 
ATOM      3  C   UNL     1     -14.840   1.108  -5.762  0.00  0.00    +0.162 A 
ATOM      4  C   UNL     1     -15.987   1.888  -5.989  0.00  0.00    +0.175 A 
ATOM      5  O   UNL     1     -16.771   1.604  -7.085  0.00  0.00    -0.450 OA
ATOM      6  C   UNL     1     -16.977   2.603  -8.017  0.00  0.00    +0.149 A 
ATOM      7  C   UNL     1     -16.900   2.146  -9.343  0.00  0.00    +0.049 A 
ATOM      8  C   UNL     1     -17.135   3.011 -10.411  0.00  0.00    +0.019 A 
ATOM      9  C   UNL     1     -17.446   4.345 -10.154  0.00  0.00    +0.061 A 
ATOM     10  C   UNL     1     -17.492   4.810  -8.833  0.00  0.00    +0.041 A 
ATOM     11  C   UNL     1     -17.330   3.940  -7.740  0.00  0.00    +0.071 A 
ATOM     12  N   UNL     1     -17.434   4.513  -6.461  0.00  0.00    -0.337 N 
ATOM     13  H   UNL     1     -18.044   5.323  -6.445  0.00  0.00    +0.147 HD
ATOM     14  C   UNL     1     -17.647   3.629  -5.328  0.00  0.00    +0.140 C 
ATOM     15  C   UNL     1     -16.402   2.847  -5.058  0.00  0.00    +0.015 A 
ATOM     16  C   UNL     1     -15.637   3.060  -3.906  0.00  0.00    +0.009 A 
ENDROOT
BRANCH   3  17
ATOM     17  O   UNL     1     -14.546   0.168  -6.716  0.00  0.00    -0.491 OA
ATOM     18  C   UNL     1     -14.897  -1.179  -6.430  0.00  0.00    +0.277 C 
ENDBRANCH   3  17
BRANCH   9  19
ATOM     19  C   UNL     1     -17.681   5.260 -11.299  0.00  0.00    +0.339 C 
ATOM     20  O   UNL     1     -18.694   5.172 -11.980  0.00  0.00    -0.245 OA
BRANCH  19  21
ATOM     21  O   UNL     1     -16.695   6.153 -11.569  0.00  0.00    -0.461 OA
BRANCH  21  22
ATOM     22  C   UNL     1     -16.047   6.123 -12.855  0.00  0.00    +0.229 C 
ATOM     23  C   UNL     1     -15.044   4.984 -12.851  0.00  0.00    +0.048 C 
ENDBRANCH  21  22
ENDBRANCH  19  21
ENDBRANCH   9  19
TORSDOF 4
ENDMDL
MODEL 6
REMARK VINA RESULT:      -6.1      3.392      6.182
REMARK  Name = min_compound930.pdb
REMARK  6 active torsions:
REMARK  status: ('A' for Active; 'I' for Inactive)
REMARK    1  A    between atoms: _3  and  _19
REMARK    2  A    between atoms: _16  and  _18
REMARK    3  A    between atoms: _18  and  _21
REMARK    4  A    between atoms: _19  and  _20
REMARK    5  A    between atoms: _21  and  _22
REMARK    6  A    between atoms: _22  and  _23
REMARK                            x       y       z     vdW  Elec       q    Type
REMARK                         _______ _______ _______ _____ _____    ______ ____
ROOT
ATOM      1  C   UNL     1     -12.243   6.129 -18.213  0.00  0.00    +0.004 A 
ATOM      2  C   UNL     1     -12.942   7.319 -17.994  0.00  0.00    +0.049 A 
ATOM      3  C   UNL     1     -14.082   7.333 -17.184  0.00  0.00    +0.162 A 
ATOM      4  C   UNL     1     -14.501   6.133 -16.584  0.00  0.00    +0.175 A 
ATOM      5  O   UNL     1     -15.674   6.131 -15.863  0.00  0.00    -0.450 OA
ATOM      6  C   UNL     1     -15.623   5.754 -14.535  0.00  0.00    +0.149 A 
ATOM      7  C   UNL     1     -16.408   6.565 -13.699  0.00  0.00    +0.049 A 
ATOM      8  C   UNL     1     -16.514   6.295 -12.336  0.00  0.00    +0.019 A 
ATOM      9  C   UNL     1     -15.827   5.207 -11.800  0.00  0.00    +0.061 A 
ATOM     10  C   UNL     1     -15.019   4.415 -12.626  0.00  0.00    +0.041 A 
ATOM     11  C   UNL     1     -14.954   4.626 -14.015  0.00  0.00    +0.071 A 
ATOM     12  N   UNL     1     -14.139   3.747 -14.746  0.00  0.00    -0.337 N 
ATOM     13  H   UNL     1     -14.069   2.831 -14.316  0.00  0.00    +0.147 HD
ATOM     14  C   UNL     1     -14.323   3.676 -16.185  0.00  0.00    +0.140 C 
ATOM     15  C   UNL     1     -13.818   4.934 -16.819  0.00  0.00    +0.015 A 
ATOM     16  C   UNL     1     -12.677   4.941 -17.628  0.00  0.00    +0.009 A 
ENDROOT
BRANCH   3  17
ATOM     17  O   UNL     1     -14.846   8.442 -16.924  0.00  0.00    -0.491 OA
ATOM     18  C   UNL     1     -15.729   8.877 -17.948  0.00  0.00    +0.277 C 
ENDBRANCH   3  17
BRANCH   9  19
ATOM     19  C   UNL     1     -15.938   4.936 -10.345  0.00  0.00    +0.339 C 
ATOM     20  O   UNL     1     -16.120   5.844  -9.545  0.00  0.00    -0.245 OA
BRANCH  19  21
ATOM     21  O   UNL     1     -15.776   3.644  -9.958  0.00  0.00    -0.461 OA
BRANCH  21  22
ATOM     22  C   UNL     1     -16.679   3.078  -8.990  0.00  0.00    +0.229 C 
ATOM     23  C   UNL     1     -15.913   2.053  -8.174  0.00  0.00    +0.048 C 
ENDBRANCH  21  22
ENDBRANCH  19  21
ENDBRANCH   9  19
TORSDOF 4
ENDMDL
MODEL 7
REMARK VINA RESULT:      -6.0      4.591      6.773
REMARK  Name = min_compound930.pdb
REMARK  6 active torsions:
REMARK  status: ('A' for Active; 'I' for Inactive)
REMARK    1  A    between atoms: _3  and  _19
REMARK    2  A    between atoms: _16  and  _18
REMARK    3  A    between atoms: _18  and  _21
REMARK    4  A    between atoms: _19  and  _20
REMARK    5  A    between atoms: _21  and  _22
REMARK    6  A    between atoms: _22  and  _23
REMARK                            x       y       z     vdW  Elec       q    Type
REMARK                         _______ _______ _______ _____ _____    ______ ____
ROOT
ATOM      1  C   UNL     1     -10.714   3.261 -15.717  0.00  0.00    +0.004 A 
ATOM      2  C   UNL     1     -10.592   1.961 -16.217  0.00  0.00    +0.049 A 
ATOM      3  C   UNL     1     -11.423   1.519 -17.251  0.00  0.00    +0.162 A 
ATOM      4  C   UNL     1     -12.371   2.408 -17.786  0.00  0.00    +0.175 A 
ATOM      5  O   UNL     1     -13.249   1.941 -18.739  0.00  0.00    -0.450 OA
ATOM      6  C   UNL     1     -13.263   2.564 -19.972  0.00  0.00    +0.149 A 
ATOM      7  C   UNL     1     -13.353   1.662 -21.045  0.00  0.00    +0.049 A 
ATOM      8  C   UNL     1     -13.433   2.121 -22.359  0.00  0.00    +0.019 A 
ATOM      9  C   UNL     1     -13.419   3.493 -22.606  0.00  0.00    +0.061 A 
ATOM     10  C   UNL     1     -13.298   4.393 -21.539  0.00  0.00    +0.041 A 
ATOM     11  C   UNL     1     -13.289   3.955 -20.203  0.00  0.00    +0.071 A 
ATOM     12  N   UNL     1     -13.201   4.952 -19.216  0.00  0.00    -0.337 N 
ATOM     13  H   UNL     1     -13.609   5.832 -19.513  0.00  0.00    +0.147 HD
ATOM     14  C   UNL     1     -13.559   4.602 -17.853  0.00  0.00    +0.140 C 
ATOM     15  C   UNL     1     -12.513   3.703 -17.273  0.00  0.00    +0.015 A 
ATOM     16  C   UNL     1     -11.668   4.129 -16.243  0.00  0.00    +0.009 A 
ENDROOT
BRANCH   3  17
ATOM     17  O   UNL     1     -11.395   0.261 -17.796  0.00  0.00    -0.491 OA
ATOM     18  C   UNL     1     -10.234  -0.523 -17.560  0.00  0.00    +0.277 C 
ENDBRANCH   3  17
BRANCH   9  19
ATOM     19  C   UNL     1     -13.492   3.970 -24.009  0.00  0.00    +0.339 C 
ATOM     20  O   UNL     1     -14.389   3.603 -24.755  0.00  0.00    -0.245 OA
BRANCH  19  21
ATOM     21  O   UNL     1     -12.488   4.786 -24.421  0.00  0.00    -0.461 OA
BRANCH  21  22
ATOM     22  C   UNL     1     -11.155   4.257 -24.550  0.00  0.00    +0.229 C 
ATOM     23  C   UNL     1     -10.187   5.267 -23.962  0.00  0.00    +0.048 C 
ENDBRANCH  21  22
ENDBRANCH  19  21
ENDBRANCH   9  19
TORSDOF 4
ENDMDL
MODEL 8
REMARK VINA RESULT:      -5.9      2.194      3.409
REMARK  Name = min_compound930.pdb
REMARK  6 active torsions:
REMARK  status: ('A' for Active; 'I' for Inactive)
REMARK    1  A    between atoms: _3  and  _19
REMARK    2  A    between atoms: _16  and  _18
REMARK    3  A    between atoms: _18  and  _21
REMARK    4  A    between atoms: _19  and  _20
REMARK    5  A    between atoms: _21  and  _22
REMARK    6  A    between atoms: _22  and  _23
REMARK                            x       y       z     vdW  Elec       q    Type
REMARK                         _______ _______ _______ _____ _____    ______ ____
ROOT
ATOM      1  C   UNL     1     -18.913   5.947 -13.850  0.00  0.00    +0.004 A 
ATOM      2  C   UNL     1     -17.869   6.871 -13.966  0.00  0.00    +0.049 A 
ATOM      3  C   UNL     1     -16.540   6.439 -13.979  0.00  0.00    +0.162 A 
ATOM      4  C   UNL     1     -16.274   5.062 -13.888  0.00  0.00    +0.175 A 
ATOM      5  O   UNL     1     -14.962   4.648 -13.808  0.00  0.00    -0.450 OA
ATOM      6  C   UNL     1     -14.491   3.783 -14.777  0.00  0.00    +0.149 A 
ATOM      7  C   UNL     1     -13.200   4.107 -15.226  0.00  0.00    +0.049 A 
ATOM      8  C   UNL     1     -12.550   3.309 -16.166  0.00  0.00    +0.019 A 
ATOM      9  C   UNL     1     -13.195   2.179 -16.665  0.00  0.00    +0.061 A 
ATOM     10  C   UNL     1     -14.495   1.871 -16.242  0.00  0.00    +0.041 A 
ATOM     11  C   UNL     1     -15.141   2.621 -15.243  0.00  0.00    +0.071 A 
ATOM     12  N   UNL     1     -16.428   2.197 -14.874  0.00  0.00    -0.337 N 
ATOM     13  H   UNL     1     -16.560   1.199 -14.997  0.00  0.00    +0.147 HD
ATOM     14  C   UNL     1     -16.978   2.683 -13.621  0.00  0.00    +0.140 C 
ATOM     15  C   UNL     1     -17.313   4.135 -13.748  0.00  0.00    +0.015 A 
ATOM     16  C   UNL     1     -18.637   4.586 -13.743  0.00  0.00    +0.009 A 
ENDROOT
BRANCH   3  17
ATOM     17  O   UNL     1     -15.448   7.264 -14.069  0.00  0.00    -0.491 OA
ATOM     18  C   UNL     1     -15.580   8.430 -14.870  0.00  0.00    +0.277 C 
ENDBRANCH   3  17
BRANCH   9  19
ATOM     19  C   UNL     1     -12.497   1.343 -17.675  0.00  0.00    +0.339 C 
ATOM     20  O   UNL     1     -12.552   1.615 -18.866  0.00  0.00    -0.245 OA
BRANCH  19  21
ATOM     21  O   UNL     1     -11.848   0.247 -17.205  0.00  0.00    -0.461 OA
BRANCH  21  22
ATOM     22  C   UNL     1     -10.409   0.249 -17.146  0.00  0.00    +0.229 C 
ATOM     23  C   UNL     1      -9.980  -0.719 -16.060  0.00  0.00    +0.048 C 
ENDBRANCH  21  22
ENDBRANCH  19  21
ENDBRANCH   9  19
TORSDOF 4
ENDMDL
MODEL 9
REMARK VINA RESULT:      -5.8      2.407      6.943
REMARK  Name = min_compound930.pdb
REMARK  6 active torsions:
REMARK  status: ('A' for Active; 'I' for Inactive)
REMARK    1  A    between atoms: _3  and  _19
REMARK    2  A    between atoms: _16  and  _18
REMARK    3  A    between atoms: _18  and  _21
REMARK    4  A    between atoms: _19  and  _20
REMARK    5  A    between atoms: _21  and  _22
REMARK    6  A    between atoms: _22  and  _23
REMARK                            x       y       z     vdW  Elec       q    Type
REMARK                         _______ _______ _______ _____ _____    ______ ____
ROOT
ATOM      1  C   UNL     1     -10.922   2.674 -16.565  0.00  0.00    +0.004 A 
ATOM      2  C   UNL     1     -10.739   4.010 -16.935  0.00  0.00    +0.049 A 
ATOM      3  C   UNL     1     -11.830   4.881 -17.007  0.00  0.00    +0.162 A 
ATOM      4  C   UNL     1     -13.108   4.393 -16.687  0.00  0.00    +0.175 A 
ATOM      5  O   UNL     1     -14.192   5.228 -16.847  0.00  0.00    -0.450 OA
ATOM      6  C   UNL     1     -14.978   5.496 -15.742  0.00  0.00    +0.149 A 
ATOM      7  C   UNL     1     -15.357   6.845 -15.649  0.00  0.00    +0.049 A 
ATOM      8  C   UNL     1     -16.195   7.282 -14.624  0.00  0.00    +0.019 A 
ATOM      9  C   UNL     1     -16.656   6.364 -13.681  0.00  0.00    +0.061 A 
ATOM     10  C   UNL     1     -16.254   5.024 -13.755  0.00  0.00    +0.041 A 
ATOM     11  C   UNL     1     -15.468   4.549 -14.820  0.00  0.00    +0.071 A 
ATOM     12  N   UNL     1     -15.158   3.179 -14.808  0.00  0.00    -0.337 N 
ATOM     13  H   UNL     1     -15.868   2.622 -14.345  0.00  0.00    +0.147 HD
ATOM     14  C   UNL     1     -14.685   2.571 -16.039  0.00  0.00    +0.140 C 
ATOM     15  C   UNL     1     -13.301   3.051 -16.338  0.00  0.00    +0.015 A 
ATOM     16  C   UNL     1     -12.196   2.196 -16.267  0.00  0.00    +0.009 A 
ENDROOT
BRANCH   3  17
ATOM     17  O   UNL     1     -11.758   6.200 -17.376  0.00  0.00    -0.491 OA
ATOM     18  C   UNL     1     -11.855   6.492 -18.763  0.00  0.00    +0.277 C 
ENDBRANCH   3  17
BRANCH   9  19
ATOM     19  C   UNL     1     -17.538   6.843 -12.587  0.00  0.00    +0.339 C 
ATOM     20  O   UNL     1     -17.994   7.978 -12.594  0.00  0.00    -0.245 OA
BRANCH  19  21
ATOM     21  O   UNL     1     -17.762   5.972 -11.569  0.00  0.00    -0.461 OA
BRANCH  21  22
ATOM     22  C   UNL     1     -17.261   6.278 -10.254  0.00  0.00    +0.229 C 
ATOM     23  C   UNL     1     -16.176   5.272  -9.917  0.00  0.00    +0.048 C 
ENDBRANCH  21  22
ENDBRANCH  19  21
ENDBRANCH   9  19
TORSDOF 4
ENDMDL
