MODEL 1
REMARK VINA RESULT:      -7.2      0.000      0.000
REMARK  Name = min_compound945.pdb
REMARK  8 active torsions:
REMARK  status: ('A' for Active; 'I' for Inactive)
REMARK    1  A    between atoms: _1  and  _20
REMARK    2  A    between atoms: _2  and  _21
REMARK    3  A    between atoms: _4  and  _12
REMARK    4  A    between atoms: _10  and  _16
REMARK    5  A    between atoms: _12  and  _13
REMARK    6  A    between atoms: _13  and  _15
REMARK    7  A    between atoms: _16  and  _17
REMARK    8  A    between atoms: _17  and  _19
REMARK                            x       y       z     vdW  Elec       q    Type
REMARK                         _______ _______ _______ _____ _____    ______ ____
ROOT
ATOM      1  C   UNL     1     -15.028   4.429 -15.635  0.00  0.00    +0.100 C 
ATOM      2  C   UNL     1     -16.287   5.233 -15.492  0.00  0.00    +0.045 C 
ATOM      3  O   UNL     1     -14.565   3.860 -14.396  0.00  0.00    -0.361 OA
ATOM      4  C   UNL     1     -15.026   2.930 -15.394  0.00  0.00    +0.100 C 
ATOM      5  C   UNL     1     -16.279   2.204 -15.000  0.00  0.00    +0.045 C 
ATOM      6  C   UNL     1     -13.957   2.073 -16.012  0.00  0.00    +0.077 C 
ATOM      7  C   UNL     1     -12.694   2.801 -16.415  0.00  0.00    +0.005 A 
ATOM      8  C   UNL     1     -11.516   2.033 -16.623  0.00  0.00    +0.135 A 
ATOM      9  C   UNL     1     -10.351   2.721 -16.996  0.00  0.00    +0.050 A 
ATOM     10  C   UNL     1     -10.350   4.137 -17.217  0.00  0.00    +0.050 A 
ATOM     11  C   UNL     1     -11.516   4.907 -17.072  0.00  0.00    +0.135 A 
ATOM     12  C   UNL     1     -12.694   4.240 -16.642  0.00  0.00    +0.005 A 
ATOM     13  C   UNL     1     -13.960   5.052 -16.489  0.00  0.00    +0.077 C 
ENDROOT
BRANCH   8  14
ATOM     14  O   UNL     1     -11.545   0.560 -16.381  0.00  0.00    -0.426 OA
BRANCH  14  15
ATOM     15  C   UNL     1     -10.399  -0.257 -16.404  0.00  0.00    +0.309 C 
ATOM     16  C   UNL     1      -9.902  -0.997 -17.610  0.00  0.00    +0.136 C 
ATOM     17  O   UNL     1      -9.706  -0.383 -15.386  0.00  0.00    -0.251 OA
ENDBRANCH  14  15
ENDBRANCH   8  14
BRANCH  11  18
ATOM     18  O   UNL     1     -11.542   6.385 -17.290  0.00  0.00    -0.426 OA
BRANCH  18  19
ATOM     19  C   UNL     1     -12.106   6.999 -18.424  0.00  0.00    +0.309 C 
ATOM     20  C   UNL     1     -11.688   6.731 -19.839  0.00  0.00    +0.136 C 
ATOM     21  O   UNL     1     -13.000   7.846 -18.291  0.00  0.00    -0.251 OA
ENDBRANCH  18  19
ENDBRANCH  11  18
TORSDOF 4
ENDMDL
MODEL 2
REMARK VINA RESULT:      -6.9      1.319      5.175
REMARK  Name = min_compound945.pdb
REMARK  8 active torsions:
REMARK  status: ('A' for Active; 'I' for Inactive)
REMARK    1  A    between atoms: _1  and  _20
REMARK    2  A    between atoms: _2  and  _21
REMARK    3  A    between atoms: _4  and  _12
REMARK    4  A    between atoms: _10  and  _16
REMARK    5  A    between atoms: _12  and  _13
REMARK    6  A    between atoms: _13  and  _15
REMARK    7  A    between atoms: _16  and  _17
REMARK    8  A    between atoms: _17  and  _19
REMARK                            x       y       z     vdW  Elec       q    Type
REMARK                         _______ _______ _______ _____ _____    ______ ____
ROOT
ATOM      1  C   UNL     1     -15.188   3.087 -15.820  0.00  0.00    +0.100 C 
ATOM      2  C   UNL     1     -16.238   2.294 -15.100  0.00  0.00    +0.045 C 
ATOM      3  O   UNL     1     -15.343   3.082 -17.251  0.00  0.00    -0.361 OA
ATOM      4  C   UNL     1     -15.549   4.344 -16.591  0.00  0.00    +0.100 C 
ATOM      5  C   UNL     1     -16.967   4.831 -16.662  0.00  0.00    +0.045 C 
ATOM      6  C   UNL     1     -14.500   5.386 -16.860  0.00  0.00    +0.077 C 
ATOM      7  C   UNL     1     -13.069   4.901 -16.784  0.00  0.00    +0.005 A 
ATOM      8  C   UNL     1     -12.061   5.689 -17.403  0.00  0.00    +0.135 A 
ATOM      9  C   UNL     1     -10.738   5.228 -17.325  0.00  0.00    +0.050 A 
ATOM     10  C   UNL     1     -10.396   4.037 -16.604  0.00  0.00    +0.050 A 
ATOM     11  C   UNL     1     -11.369   3.273 -15.938  0.00  0.00    +0.135 A 
ATOM     12  C   UNL     1     -12.722   3.693 -16.049  0.00  0.00    +0.005 A 
ATOM     13  C   UNL     1     -13.780   2.886 -15.331  0.00  0.00    +0.077 C 
ENDROOT
BRANCH   8  14
ATOM     14  O   UNL     1     -12.446   6.923 -18.151  0.00  0.00    -0.426 OA
BRANCH  14  15
ATOM     15  C   UNL     1     -12.547   6.985 -19.554  0.00  0.00    +0.309 C 
ATOM     16  C   UNL     1     -11.389   7.191 -20.484  0.00  0.00    +0.136 C 
ATOM     17  O   UNL     1     -13.646   6.839 -20.104  0.00  0.00    -0.251 OA
ENDBRANCH  14  15
ENDBRANCH   8  14
BRANCH  11  18
ATOM     18  O   UNL     1     -11.042   2.025 -15.184  0.00  0.00    -0.426 OA
BRANCH  18  19
ATOM     19  C   UNL     1     -10.692   0.809 -15.800  0.00  0.00    +0.309 C 
ATOM     20  C   UNL     1     -11.523   0.101 -16.828  0.00  0.00    +0.136 C 
ATOM     21  O   UNL     1      -9.644   0.231 -15.482  0.00  0.00    -0.251 OA
ENDBRANCH  18  19
ENDBRANCH  11  18
TORSDOF 4
ENDMDL
MODEL 3
REMARK VINA RESULT:      -6.8      2.492      5.643
REMARK  Name = min_compound945.pdb
REMARK  8 active torsions:
REMARK  status: ('A' for Active; 'I' for Inactive)
REMARK    1  A    between atoms: _1  and  _20
REMARK    2  A    between atoms: _2  and  _21
REMARK    3  A    between atoms: _4  and  _12
REMARK    4  A    between atoms: _10  and  _16
REMARK    5  A    between atoms: _12  and  _13
REMARK    6  A    between atoms: _13  and  _15
REMARK    7  A    between atoms: _16  and  _17
REMARK    8  A    between atoms: _17  and  _19
REMARK                            x       y       z     vdW  Elec       q    Type
REMARK                         _______ _______ _______ _____ _____    ______ ____
ROOT
ATOM      1  C   UNL     1     -13.571   2.400 -20.012  0.00  0.00    +0.100 C 
ATOM      2  C   UNL     1     -13.775   1.825 -21.383  0.00  0.00    +0.045 C 
ATOM      3  O   UNL     1     -13.440   3.833 -20.003  0.00  0.00    -0.361 OA
ATOM      4  C   UNL     1     -14.619   3.296 -19.376  0.00  0.00    +0.100 C 
ATOM      5  C   UNL     1     -15.889   3.640 -20.098  0.00  0.00    +0.045 C 
ATOM      6  C   UNL     1     -14.672   3.443 -17.881  0.00  0.00    +0.077 C 
ATOM      7  C   UNL     1     -13.396   3.091 -17.149  0.00  0.00    +0.005 A 
ATOM      8  C   UNL     1     -13.232   3.574 -15.822  0.00  0.00    +0.135 A 
ATOM      9  C   UNL     1     -12.044   3.241 -15.153  0.00  0.00    +0.050 A 
ATOM     10  C   UNL     1     -11.050   2.401 -15.755  0.00  0.00    +0.050 A 
ATOM     11  C   UNL     1     -11.217   1.868 -17.044  0.00  0.00    +0.135 A 
ATOM     12  C   UNL     1     -12.389   2.236 -17.759  0.00  0.00    +0.005 A 
ATOM     13  C   UNL     1     -12.588   1.664 -19.145  0.00  0.00    +0.077 C 
ENDROOT
BRANCH   8  14
ATOM     14  O   UNL     1     -14.281   4.451 -15.221  0.00  0.00    -0.426 OA
BRANCH  14  15
ATOM     15  C   UNL     1     -15.079   4.073 -14.125  0.00  0.00    +0.309 C 
ATOM     16  C   UNL     1     -16.161   3.036 -14.174  0.00  0.00    +0.136 C 
ATOM     17  O   UNL     1     -14.893   4.589 -13.015  0.00  0.00    -0.251 OA
ENDBRANCH  14  15
ENDBRANCH   8  14
BRANCH  11  18
ATOM     18  O   UNL     1     -10.196   0.995 -17.697  0.00  0.00    -0.426 OA
BRANCH  18  19
ATOM     19  C   UNL     1      -9.913  -0.321 -17.285  0.00  0.00    +0.309 C 
ATOM     20  C   UNL     1      -9.747  -0.754 -15.859  0.00  0.00    +0.136 C 
ATOM     21  O   UNL     1      -9.757  -1.215 -18.128  0.00  0.00    -0.251 OA
ENDBRANCH  18  19
ENDBRANCH  11  18
TORSDOF 4
ENDMDL
MODEL 4
REMARK VINA RESULT:      -6.5      2.837      6.151
REMARK  Name = min_compound945.pdb
REMARK  8 active torsions:
REMARK  status: ('A' for Active; 'I' for Inactive)
REMARK    1  A    between atoms: _1  and  _20
REMARK    2  A    between atoms: _2  and  _21
REMARK    3  A    between atoms: _4  and  _12
REMARK    4  A    between atoms: _10  and  _16
REMARK    5  A    between atoms: _12  and  _13
REMARK    6  A    between atoms: _13  and  _15
REMARK    7  A    between atoms: _16  and  _17
REMARK    8  A    between atoms: _17  and  _19
REMARK                            x       y       z     vdW  Elec       q    Type
REMARK                         _______ _______ _______ _____ _____    ______ ____
ROOT
ATOM      1  C   UNL     1     -13.624   2.432 -20.426  0.00  0.00    +0.100 C 
ATOM      2  C   UNL     1     -13.473   1.703 -21.730  0.00  0.00    +0.045 C 
ATOM      3  O   UNL     1     -13.421   3.853 -20.535  0.00  0.00    -0.361 OA
ATOM      4  C   UNL     1     -14.755   3.420 -20.209  0.00  0.00    +0.100 C 
ATOM      5  C   UNL     1     -15.756   3.705 -21.290  0.00  0.00    +0.045 C 
ATOM      6  C   UNL     1     -15.209   3.743 -18.813  0.00  0.00    +0.077 C 
ATOM      7  C   UNL     1     -14.205   3.452 -17.720  0.00  0.00    +0.005 A 
ATOM      8  C   UNL     1     -14.387   4.085 -16.459  0.00  0.00    +0.135 A 
ATOM      9  C   UNL     1     -13.448   3.806 -15.453  0.00  0.00    +0.050 A 
ATOM     10  C   UNL     1     -12.374   2.879 -15.660  0.00  0.00    +0.050 A 
ATOM     11  C   UNL     1     -12.210   2.201 -16.879  0.00  0.00    +0.135 A 
ATOM     12  C   UNL     1     -13.117   2.508 -17.929  0.00  0.00    +0.005 A 
ATOM     13  C   UNL     1     -12.959   1.781 -19.245  0.00  0.00    +0.077 C 
ENDROOT
BRANCH   8  14
ATOM     14  O   UNL     1     -15.511   5.050 -16.274  0.00  0.00    -0.426 OA
BRANCH  14  15
ATOM     15  C   UNL     1     -15.359   6.320 -15.688  0.00  0.00    +0.309 C 
ATOM     16  C   UNL     1     -14.833   7.531 -16.401  0.00  0.00    +0.136 C 
ATOM     17  O   UNL     1     -15.694   6.506 -14.511  0.00  0.00    -0.251 OA
ENDBRANCH  14  15
ENDBRANCH   8  14
BRANCH  11  18
ATOM     18  O   UNL     1     -11.097   1.234 -17.124  0.00  0.00    -0.426 OA
BRANCH  18  19
ATOM     19  C   UNL     1     -11.073  -0.076 -16.610  0.00  0.00    +0.309 C 
ATOM     20  C   UNL     1      -9.846  -0.773 -16.101  0.00  0.00    +0.136 C 
ATOM     21  O   UNL     1     -12.111  -0.750 -16.579  0.00  0.00    -0.251 OA
ENDBRANCH  18  19
ENDBRANCH  11  18
TORSDOF 4
ENDMDL
MODEL 5
REMARK VINA RESULT:      -6.3      1.715      4.765
REMARK  Name = min_compound945.pdb
REMARK  8 active torsions:
REMARK  status: ('A' for Active; 'I' for Inactive)
REMARK    1  A    between atoms: _1  and  _20
REMARK    2  A    between atoms: _2  and  _21
REMARK    3  A    between atoms: _4  and  _12
REMARK    4  A    between atoms: _10  and  _16
REMARK    5  A    between atoms: _12  and  _13
REMARK    6  A    between atoms: _13  and  _15
REMARK    7  A    between atoms: _16  and  _17
REMARK    8  A    between atoms: _17  and  _19
REMARK                            x       y       z     vdW  Elec       q    Type
REMARK                         _______ _______ _______ _____ _____    ______ ____
ROOT
ATOM      1  C   UNL     1     -14.076   6.734 -17.431  0.00  0.00    +0.100 C 
ATOM      2  C   UNL     1     -14.462   8.184 -17.443  0.00  0.00    +0.045 C 
ATOM      3  O   UNL     1     -13.936   6.165 -18.746  0.00  0.00    -0.361 OA
ATOM      4  C   UNL     1     -12.730   6.280 -17.968  0.00  0.00    +0.100 C 
ATOM      5  C   UNL     1     -11.746   7.262 -18.532  0.00  0.00    +0.045 C 
ATOM      6  C   UNL     1     -12.142   4.976 -17.506  0.00  0.00    +0.077 C 
ATOM      7  C   UNL     1     -13.129   3.985 -16.932  0.00  0.00    +0.005 A 
ATOM      8  C   UNL     1     -12.738   2.620 -16.852  0.00  0.00    +0.135 A 
ATOM      9  C   UNL     1     -13.663   1.710 -16.317  0.00  0.00    +0.050 A 
ATOM     10  C   UNL     1     -14.938   2.137 -15.817  0.00  0.00    +0.050 A 
ATOM     11  C   UNL     1     -15.322   3.488 -15.836  0.00  0.00    +0.135 A 
ATOM     12  C   UNL     1     -14.422   4.419 -16.422  0.00  0.00    +0.005 A 
ATOM     13  C   UNL     1     -14.817   5.879 -16.442  0.00  0.00    +0.077 C 
ENDROOT
BRANCH   8  14
ATOM     14  O   UNL     1     -11.407   2.203 -17.385  0.00  0.00    -0.426 OA
BRANCH  14  15
ATOM     15  C   UNL     1     -10.530   1.338 -16.703  0.00  0.00    +0.309 C 
ATOM     16  C   UNL     1      -9.800   0.191 -17.334  0.00  0.00    +0.136 C 
ATOM     17  O   UNL     1     -10.295   1.514 -15.500  0.00  0.00    -0.251 OA
ENDBRANCH  14  15
ENDBRANCH   8  14
BRANCH  11  18
ATOM     18  O   UNL     1     -16.645   3.961 -15.327  0.00  0.00    -0.426 OA
BRANCH  18  19
ATOM     19  C   UNL     1     -17.485   3.191 -14.501  0.00  0.00    +0.309 C 
ATOM     20  C   UNL     1     -17.162   2.784 -13.094  0.00  0.00    +0.136 C 
ATOM     21  O   UNL     1     -18.569   2.776 -14.933  0.00  0.00    -0.251 OA
ENDBRANCH  18  19
ENDBRANCH  11  18
TORSDOF 4
ENDMDL
MODEL 6
REMARK VINA RESULT:      -6.2      2.766      3.799
REMARK  Name = min_compound945.pdb
REMARK  8 active torsions:
REMARK  status: ('A' for Active; 'I' for Inactive)
REMARK    1  A    between atoms: _1  and  _20
REMARK    2  A    between atoms: _2  and  _21
REMARK    3  A    between atoms: _4  and  _12
REMARK    4  A    between atoms: _10  and  _16
REMARK    5  A    between atoms: _12  and  _13
REMARK    6  A    between atoms: _13  and  _15
REMARK    7  A    between atoms: _16  and  _17
REMARK    8  A    between atoms: _17  and  _19
REMARK                            x       y       z     vdW  Elec       q    Type
REMARK                         _______ _______ _______ _____ _____    ______ ____
ROOT
ATOM      1  C   UNL     1     -13.793   3.806 -20.722  0.00  0.00    +0.100 C 
ATOM      2  C   UNL     1     -14.063   4.530 -22.008  0.00  0.00    +0.045 C 
ATOM      3  O   UNL     1     -14.817   2.858 -20.368  0.00  0.00    -0.361 OA
ATOM      4  C   UNL     1     -13.528   2.311 -20.707  0.00  0.00    +0.100 C 
ATOM      5  C   UNL     1     -13.535   1.507 -21.974  0.00  0.00    +0.045 C 
ATOM      6  C   UNL     1     -12.775   1.695 -19.561  0.00  0.00    +0.077 C 
ATOM      7  C   UNL     1     -12.761   2.504 -18.283  0.00  0.00    +0.005 A 
ATOM      8  C   UNL     1     -12.433   1.836 -17.072  0.00  0.00    +0.135 A 
ATOM      9  C   UNL     1     -12.424   2.598 -15.893  0.00  0.00    +0.050 A 
ATOM     10  C   UNL     1     -12.680   4.009 -15.905  0.00  0.00    +0.050 A 
ATOM     11  C   UNL     1     -12.952   4.698 -17.099  0.00  0.00    +0.135 A 
ATOM     12  C   UNL     1     -13.019   3.937 -18.297  0.00  0.00    +0.005 A 
ATOM     13  C   UNL     1     -13.302   4.666 -19.591  0.00  0.00    +0.077 C 
ENDROOT
BRANCH   8  14
ATOM     14  O   UNL     1     -12.175   0.366 -17.088  0.00  0.00    -0.426 OA
BRANCH  14  15
ATOM     15  C   UNL     1     -10.891  -0.202 -16.977  0.00  0.00    +0.309 C 
ATOM     16  C   UNL     1     -10.094  -0.267 -15.708  0.00  0.00    +0.136 C 
ATOM     17  O   UNL     1     -10.353  -0.719 -17.964  0.00  0.00    -0.251 OA
ENDBRANCH  14  15
ENDBRANCH   8  14
BRANCH  11  18
ATOM     18  O   UNL     1     -13.228   6.166 -17.140  0.00  0.00    -0.426 OA
BRANCH  18  19
ATOM     19  C   UNL     1     -14.471   6.738 -16.809  0.00  0.00    +0.309 C 
ATOM     20  C   UNL     1     -15.752   5.972 -16.658  0.00  0.00    +0.136 C 
ATOM     21  O   UNL     1     -14.568   7.962 -16.645  0.00  0.00    -0.251 OA
ENDBRANCH  18  19
ENDBRANCH  11  18
TORSDOF 4
ENDMDL
MODEL 7
REMARK VINA RESULT:      -6.1     11.712     12.930
REMARK  Name = min_compound945.pdb
REMARK  8 active torsions:
REMARK  status: ('A' for Active; 'I' for Inactive)
REMARK    1  A    between atoms: _1  and  _20
REMARK    2  A    between atoms: _2  and  _21
REMARK    3  A    between atoms: _4  and  _12
REMARK    4  A    between atoms: _10  and  _16
REMARK    5  A    between atoms: _12  and  _13
REMARK    6  A    between atoms: _13  and  _15
REMARK    7  A    between atoms: _16  and  _17
REMARK    8  A    between atoms: _17  and  _19
REMARK                            x       y       z     vdW  Elec       q    Type
REMARK                         _______ _______ _______ _____ _____    ______ ____
ROOT
ATOM      1  C   UNL     1     -14.522   1.478  -4.325  0.00  0.00    +0.100 C 
ATOM      2  C   UNL     1     -13.384   1.240  -3.376  0.00  0.00    +0.045 C 
ATOM      3  O   UNL     1     -14.114   1.572  -5.702  0.00  0.00    -0.361 OA
ATOM      4  C   UNL     1     -14.917   0.430  -5.350  0.00  0.00    +0.100 C 
ATOM      5  C   UNL     1     -14.181  -0.873  -5.453  0.00  0.00    +0.045 C 
ATOM      6  C   UNL     1     -16.307   0.427  -5.921  0.00  0.00    +0.077 C 
ATOM      7  C   UNL     1     -17.056   1.738  -5.814  0.00  0.00    +0.005 A 
ATOM      8  C   UNL     1     -18.180   1.937  -6.661  0.00  0.00    +0.135 A 
ATOM      9  C   UNL     1     -18.866   3.157  -6.553  0.00  0.00    +0.050 A 
ATOM     10  C   UNL     1     -18.490   4.150  -5.590  0.00  0.00    +0.050 A 
ATOM     11  C   UNL     1     -17.416   3.950  -4.706  0.00  0.00    +0.135 A 
ATOM     12  C   UNL     1     -16.675   2.745  -4.834  0.00  0.00    +0.005 A 
ATOM     13  C   UNL     1     -15.522   2.511  -3.885  0.00  0.00    +0.077 C 
ENDROOT
BRANCH   8  14
ATOM     14  O   UNL     1     -18.547   0.887  -7.658  0.00  0.00    -0.426 OA
BRANCH  14  15
ATOM     15  C   UNL     1     -19.646   0.021  -7.510  0.00  0.00    +0.309 C 
ATOM     16  C   UNL     1     -20.051  -0.632  -6.222  0.00  0.00    +0.136 C 
ATOM     17  O   UNL     1     -20.375  -0.229  -8.479  0.00  0.00    -0.251 OA
ENDBRANCH  14  15
ENDBRANCH   8  14
BRANCH  11  18
ATOM     18  O   UNL     1     -16.999   4.970  -3.696  0.00  0.00    -0.426 OA
BRANCH  18  19
ATOM     19  C   UNL     1     -16.861   6.341  -3.981  0.00  0.00    +0.309 C 
ATOM     20  C   UNL     1     -17.991   7.258  -4.344  0.00  0.00    +0.136 C 
ATOM     21  O   UNL     1     -15.740   6.868  -3.968  0.00  0.00    -0.251 OA
ENDBRANCH  18  19
ENDBRANCH  11  18
TORSDOF 4
ENDMDL
MODEL 8
REMARK VINA RESULT:      -6.0      9.348     11.586
REMARK  Name = min_compound945.pdb
REMARK  8 active torsions:
REMARK  status: ('A' for Active; 'I' for Inactive)
REMARK    1  A    between atoms: _1  and  _20
REMARK    2  A    between atoms: _2  and  _21
REMARK    3  A    between atoms: _4  and  _12
REMARK    4  A    between atoms: _10  and  _16
REMARK    5  A    between atoms: _12  and  _13
REMARK    6  A    between atoms: _13  and  _15
REMARK    7  A    between atoms: _16  and  _17
REMARK    8  A    between atoms: _17  and  _19
REMARK                            x       y       z     vdW  Elec       q    Type
REMARK                         _______ _______ _______ _____ _____    ______ ____
ROOT
ATOM      1  C   UNL     1     -19.297   0.043  -6.502  0.00  0.00    +0.100 C 
ATOM      2  C   UNL     1     -20.749  -0.061  -6.870  0.00  0.00    +0.045 C 
ATOM      3  O   UNL     1     -19.070   0.657  -5.220  0.00  0.00    -0.361 OA
ATOM      4  C   UNL     1     -18.729  -0.737  -5.331  0.00  0.00    +0.100 C 
ATOM      5  C   UNL     1     -19.600  -1.633  -4.499  0.00  0.00    +0.045 C 
ATOM      6  C   UNL     1     -17.259  -1.042  -5.276  0.00  0.00    +0.077 C 
ATOM      7  C   UNL     1     -16.378  -0.145  -6.118  0.00  0.00    +0.005 A 
ATOM      8  C   UNL     1     -14.989  -0.101  -5.819  0.00  0.00    +0.135 A 
ATOM      9  C   UNL     1     -14.182   0.735  -6.607  0.00  0.00    +0.050 A 
ATOM     10  C   UNL     1     -14.719   1.479  -7.710  0.00  0.00    +0.050 A 
ATOM     11  C   UNL     1     -16.078   1.406  -8.056  0.00  0.00    +0.135 A 
ATOM     12  C   UNL     1     -16.923   0.607  -7.239  0.00  0.00    +0.005 A 
ATOM     13  C   UNL     1     -18.387   0.512  -7.603  0.00  0.00    +0.077 C 
ENDROOT
BRANCH   8  14
ATOM     14  O   UNL     1     -14.458  -0.882  -4.663  0.00  0.00    -0.426 OA
BRANCH  14  15
ATOM     15  C   UNL     1     -14.216  -0.327  -3.392  0.00  0.00    +0.309 C 
ATOM     16  C   UNL     1     -13.527   0.983  -3.150  0.00  0.00    +0.136 C 
ATOM     17  O   UNL     1     -14.603  -0.915  -2.374  0.00  0.00    -0.251 OA
ENDBRANCH  14  15
ENDBRANCH   8  14
BRANCH  11  18
ATOM     18  O   UNL     1     -16.665   2.174  -9.196  0.00  0.00    -0.426 OA
BRANCH  18  19
ATOM     19  C   UNL     1     -16.450   3.549  -9.406  0.00  0.00    +0.309 C 
ATOM     20  C   UNL     1     -15.695   4.130 -10.565  0.00  0.00    +0.136 C 
ATOM     21  O   UNL     1     -16.875   4.376  -8.588  0.00  0.00    -0.251 OA
ENDBRANCH  18  19
ENDBRANCH  11  18
TORSDOF 4
ENDMDL
MODEL 9
REMARK VINA RESULT:      -5.9      3.331      6.981
REMARK  Name = min_compound945.pdb
REMARK  8 active torsions:
REMARK  status: ('A' for Active; 'I' for Inactive)
REMARK    1  A    between atoms: _1  and  _20
REMARK    2  A    between atoms: _2  and  _21
REMARK    3  A    between atoms: _4  and  _12
REMARK    4  A    between atoms: _10  and  _16
REMARK    5  A    between atoms: _12  and  _13
REMARK    6  A    between atoms: _13  and  _15
REMARK    7  A    between atoms: _16  and  _17
REMARK    8  A    between atoms: _17  and  _19
REMARK                            x       y       z     vdW  Elec       q    Type
REMARK                         _______ _______ _______ _____ _____    ______ ____
ROOT
ATOM      1  C   UNL     1     -16.938   4.307 -13.631  0.00  0.00    +0.100 C 
ATOM      2  C   UNL     1     -17.235   2.948 -13.069  0.00  0.00    +0.045 C 
ATOM      3  O   UNL     1     -18.111   5.017 -14.072  0.00  0.00    -0.361 OA
ATOM      4  C   UNL     1     -17.422   5.565 -12.932  0.00  0.00    +0.100 C 
ATOM      5  C   UNL     1     -18.217   5.491 -11.662  0.00  0.00    +0.045 C 
ATOM      6  C   UNL     1     -16.724   6.873 -13.176  0.00  0.00    +0.077 C 
ATOM      7  C   UNL     1     -15.917   6.951 -14.453  0.00  0.00    +0.005 A 
ATOM      8  C   UNL     1     -15.571   8.237 -14.949  0.00  0.00    +0.135 A 
ATOM      9  C   UNL     1     -14.822   8.295 -16.135  0.00  0.00    +0.050 A 
ATOM     10  C   UNL     1     -14.370   7.108 -16.800  0.00  0.00    +0.050 A 
ATOM     11  C   UNL     1     -14.654   5.828 -16.296  0.00  0.00    +0.135 A 
ATOM     12  C   UNL     1     -15.456   5.745 -15.126  0.00  0.00    +0.005 A 
ATOM     13  C   UNL     1     -15.763   4.374 -14.567  0.00  0.00    +0.077 C 
ENDROOT
BRANCH   8  14
ATOM     14  O   UNL     1     -16.059   9.457 -14.239  0.00  0.00    -0.426 OA
BRANCH  14  15
ATOM     15  C   UNL     1     -16.403  10.655 -14.893  0.00  0.00    +0.309 C 
ATOM     16  C   UNL     1     -17.439  10.771 -15.971  0.00  0.00    +0.136 C 
ATOM     17  O   UNL     1     -15.856  11.717 -14.570  0.00  0.00    -0.251 OA
ENDBRANCH  14  15
ENDBRANCH   8  14
BRANCH  11  18
ATOM     18  O   UNL     1     -14.201   4.574 -16.972  0.00  0.00    -0.426 OA
BRANCH  18  19
ATOM     19  C   UNL     1     -12.891   4.066 -16.880  0.00  0.00    +0.309 C 
ATOM     20  C   UNL     1     -12.352   3.295 -15.712  0.00  0.00    +0.136 C 
ATOM     21  O   UNL     1     -12.083   4.266 -17.796  0.00  0.00    -0.251 OA
ENDBRANCH  18  19
ENDBRANCH  11  18
TORSDOF 4
ENDMDL
