MODEL 1
REMARK VINA RESULT:      -5.2      0.000      0.000
REMARK  Name = min_compound98.pdb
REMARK  3 active torsions:
REMARK  status: ('A' for Active; 'I' for Inactive)
REMARK    1  A    between atoms: _4  and  _10
REMARK    2  A    between atoms: _8  and  _11
REMARK    3  A    between atoms: _13  and  _14
REMARK                            x       y       z     vdW  Elec       q    Type
REMARK                         _______ _______ _______ _____ _____    ______ ____
ROOT
ATOM      1  O   UNL     1     -11.900  -1.018 -16.637  0.00  0.00    -0.245 OA
ATOM      2  C   UNL     1     -11.719   0.198 -16.662  0.00  0.00    +0.345 A 
ATOM      3  N   UNL     1     -10.498   0.808 -16.933  0.00  0.00    -0.217 N 
ATOM      4  C   UNL     1      -9.310  -0.048 -17.257  0.00  0.00    +0.178 C 
ATOM      5  N   UNL     1     -10.327   2.173 -17.055  0.00  0.00    -0.157 NA
ATOM      6  C   UNL     1     -11.332   2.966 -16.801  0.00  0.00    +0.210 A 
ATOM      7  C   UNL     1     -12.669   2.393 -16.393  0.00  0.00    +0.285 A 
ATOM      8  O   UNL     1     -13.596   3.130 -16.081  0.00  0.00    -0.265 OA
ATOM      9  N   UNL     1     -12.760   1.036 -16.405  0.00  0.00    -0.272 N 
ATOM     10  H   UNL     1     -13.639   0.607 -16.163  0.00  0.00    +0.174 HD
ENDROOT
BRANCH   6  11
ATOM     11  C   UNL     1     -11.088   4.475 -16.936  0.00  0.00    +0.269 C 
ATOM     12  N   UNL     1     -11.928   5.153 -17.795  0.00  0.00    -0.313 N 
ATOM     13  H   UNL     1     -12.725   4.660 -18.197  0.00  0.00    +0.149 HD
ATOM     14  C   UNL     1     -11.868   6.585 -17.935  0.00  0.00    +0.128 C 
ATOM     15  O   UNL     1     -10.194   5.012 -16.294  0.00  0.00    -0.268 OA
ENDBRANCH   6  11
TORSDOF 1
ENDMDL
MODEL 2
REMARK VINA RESULT:      -5.2      1.510      2.479
REMARK  Name = min_compound98.pdb
REMARK  3 active torsions:
REMARK  status: ('A' for Active; 'I' for Inactive)
REMARK    1  A    between atoms: _4  and  _10
REMARK    2  A    between atoms: _8  and  _11
REMARK    3  A    between atoms: _13  and  _14
REMARK                            x       y       z     vdW  Elec       q    Type
REMARK                         _______ _______ _______ _____ _____    ______ ____
ROOT
ATOM      1  O   UNL     1      -9.886   0.383 -15.269  0.00  0.00    -0.245 OA
ATOM      2  C   UNL     1     -10.461   1.366 -15.732  0.00  0.00    +0.345 A 
ATOM      3  N   UNL     1     -11.642   1.316 -16.465  0.00  0.00    -0.217 N 
ATOM      4  C   UNL     1     -12.305  -0.010 -16.691  0.00  0.00    +0.178 C 
ATOM      5  N   UNL     1     -12.332   2.432 -16.896  0.00  0.00    -0.157 NA
ATOM      6  C   UNL     1     -11.810   3.614 -16.711  0.00  0.00    +0.210 A 
ATOM      7  C   UNL     1     -10.476   3.756 -16.018  0.00  0.00    +0.285 A 
ATOM      8  O   UNL     1      -9.943   4.853 -15.906  0.00  0.00    -0.265 OA
ATOM      9  N   UNL     1      -9.931   2.605 -15.540  0.00  0.00    -0.272 N 
ATOM     10  H   UNL     1      -9.051   2.652 -15.050  0.00  0.00    +0.174 HD
ENDROOT
BRANCH   6  11
ATOM     11  C   UNL     1     -12.607   4.822 -17.222  0.00  0.00    +0.269 C 
ATOM     12  N   UNL     1     -11.865   5.902 -17.656  0.00  0.00    -0.313 N 
ATOM     13  H   UNL     1     -10.852   5.805 -17.731  0.00  0.00    +0.149 HD
ATOM     14  C   UNL     1     -12.489   7.056 -18.250  0.00  0.00    +0.128 C 
ATOM     15  O   UNL     1     -13.831   4.789 -17.235  0.00  0.00    -0.268 OA
ENDBRANCH   6  11
TORSDOF 1
ENDMDL
MODEL 3
REMARK VINA RESULT:      -5.1      1.917      2.344
REMARK  Name = min_compound98.pdb
REMARK  3 active torsions:
REMARK  status: ('A' for Active; 'I' for Inactive)
REMARK    1  A    between atoms: _4  and  _10
REMARK    2  A    between atoms: _8  and  _11
REMARK    3  A    between atoms: _13  and  _14
REMARK                            x       y       z     vdW  Elec       q    Type
REMARK                         _______ _______ _______ _____ _____    ______ ____
ROOT
ATOM      1  O   UNL     1      -9.673   0.201 -15.025  0.00  0.00    -0.245 OA
ATOM      2  C   UNL     1     -10.352   0.859 -15.810  0.00  0.00    +0.345 A 
ATOM      3  N   UNL     1     -10.583   0.510 -17.137  0.00  0.00    -0.217 N 
ATOM      4  C   UNL     1     -10.008  -0.770 -17.666  0.00  0.00    +0.178 C 
ATOM      5  N   UNL     1     -11.428   1.203 -17.983  0.00  0.00    -0.157 NA
ATOM      6  C   UNL     1     -11.969   2.316 -17.569  0.00  0.00    +0.210 A 
ATOM      7  C   UNL     1     -11.688   2.828 -16.176  0.00  0.00    +0.285 A 
ATOM      8  O   UNL     1     -12.131   3.908 -15.805  0.00  0.00    -0.265 OA
ATOM      9  N   UNL     1     -10.929   2.018 -15.389  0.00  0.00    -0.272 N 
ATOM     10  H   UNL     1     -10.732   2.306 -14.444  0.00  0.00    +0.174 HD
ENDROOT
BRANCH   6  11
ATOM     11  C   UNL     1     -12.887   3.057 -18.550  0.00  0.00    +0.269 C 
ATOM     12  N   UNL     1     -12.712   4.424 -18.634  0.00  0.00    -0.313 N 
ATOM     13  H   UNL     1     -11.923   4.851 -18.147  0.00  0.00    +0.149 HD
ATOM     14  C   UNL     1     -13.440   5.221 -19.587  0.00  0.00    +0.128 C 
ATOM     15  O   UNL     1     -13.711   2.437 -19.210  0.00  0.00    -0.268 OA
ENDBRANCH   6  11
TORSDOF 1
ENDMDL
MODEL 4
REMARK VINA RESULT:      -4.9      2.120      4.804
REMARK  Name = min_compound98.pdb
REMARK  3 active torsions:
REMARK  status: ('A' for Active; 'I' for Inactive)
REMARK    1  A    between atoms: _4  and  _10
REMARK    2  A    between atoms: _8  and  _11
REMARK    3  A    between atoms: _13  and  _14
REMARK                            x       y       z     vdW  Elec       q    Type
REMARK                         _______ _______ _______ _____ _____    ______ ____
ROOT
ATOM      1  O   UNL     1     -12.923   5.253 -18.991  0.00  0.00    -0.245 OA
ATOM      2  C   UNL     1     -12.629   4.173 -18.480  0.00  0.00    +0.345 A 
ATOM      3  N   UNL     1     -13.083   2.938 -18.932  0.00  0.00    -0.217 N 
ATOM      4  C   UNL     1     -13.961   2.883 -20.147  0.00  0.00    +0.178 C 
ATOM      5  N   UNL     1     -12.670   1.726 -18.414  0.00  0.00    -0.157 NA
ATOM      6  C   UNL     1     -11.892   1.714 -17.367  0.00  0.00    +0.210 A 
ATOM      7  C   UNL     1     -11.436   3.012 -16.742  0.00  0.00    +0.285 A 
ATOM      8  O   UNL     1     -10.767   3.012 -15.716  0.00  0.00    -0.265 OA
ATOM      9  N   UNL     1     -11.812   4.146 -17.392  0.00  0.00    -0.272 N 
ATOM     10  H   UNL     1     -11.513   5.037 -17.026  0.00  0.00    +0.174 HD
ENDROOT
BRANCH   6  11
ATOM     11  C   UNL     1     -11.473   0.344 -16.818  0.00  0.00    +0.269 C 
ATOM     12  N   UNL     1     -10.147   0.211 -16.456  0.00  0.00    -0.313 N 
ATOM     13  H   UNL     1      -9.552   1.039 -16.455  0.00  0.00    +0.149 HD
ATOM     14  C   UNL     1      -9.651  -0.990 -15.836  0.00  0.00    +0.128 C 
ATOM     15  O   UNL     1     -12.298  -0.554 -16.713  0.00  0.00    -0.268 OA
ENDBRANCH   6  11
TORSDOF 1
ENDMDL
MODEL 5
REMARK VINA RESULT:      -4.8      1.727      2.049
REMARK  Name = min_compound98.pdb
REMARK  3 active torsions:
REMARK  status: ('A' for Active; 'I' for Inactive)
REMARK    1  A    between atoms: _4  and  _10
REMARK    2  A    between atoms: _8  and  _11
REMARK    3  A    between atoms: _13  and  _14
REMARK                            x       y       z     vdW  Elec       q    Type
REMARK                         _______ _______ _______ _____ _____    ______ ____
ROOT
ATOM      1  O   UNL     1     -10.424  -0.768 -17.816  0.00  0.00    -0.245 OA
ATOM      2  C   UNL     1     -11.040   0.262 -17.550  0.00  0.00    +0.345 A 
ATOM      3  N   UNL     1     -10.954   0.942 -16.339  0.00  0.00    -0.217 N 
ATOM      4  C   UNL     1     -10.024   0.430 -15.279  0.00  0.00    +0.178 C 
ATOM      5  N   UNL     1     -11.574   2.150 -16.085  0.00  0.00    -0.157 NA
ATOM      6  C   UNL     1     -12.381   2.651 -16.979  0.00  0.00    +0.210 A 
ATOM      7  C   UNL     1     -12.619   1.925 -18.282  0.00  0.00    +0.285 A 
ATOM      8  O   UNL     1     -13.430   2.349 -19.096  0.00  0.00    -0.265 OA
ATOM      9  N   UNL     1     -11.880   0.799 -18.477  0.00  0.00    -0.272 N 
ATOM     10  H   UNL     1     -11.987   0.292 -19.341  0.00  0.00    +0.174 HD
ENDROOT
BRANCH   6  11
ATOM     11  C   UNL     1     -13.058   3.987 -16.645  0.00  0.00    +0.269 C 
ATOM     12  N   UNL     1     -12.831   5.023 -17.528  0.00  0.00    -0.313 N 
ATOM     13  H   UNL     1     -12.340   4.828 -18.400  0.00  0.00    +0.149 HD
ATOM     14  C   UNL     1     -13.488   6.296 -17.382  0.00  0.00    +0.128 C 
ATOM     15  O   UNL     1     -13.759   4.087 -15.646  0.00  0.00    -0.268 OA
ENDBRANCH   6  11
TORSDOF 1
ENDMDL
MODEL 6
REMARK VINA RESULT:      -4.8     10.402     11.397
REMARK  Name = min_compound98.pdb
REMARK  3 active torsions:
REMARK  status: ('A' for Active; 'I' for Inactive)
REMARK    1  A    between atoms: _4  and  _10
REMARK    2  A    between atoms: _8  and  _11
REMARK    3  A    between atoms: _13  and  _14
REMARK                            x       y       z     vdW  Elec       q    Type
REMARK                         _______ _______ _______ _____ _____    ______ ____
ROOT
ATOM      1  O   UNL     1     -14.428  -1.793  -4.546  0.00  0.00    -0.245 OA
ATOM      2  C   UNL     1     -14.921  -0.998  -5.344  0.00  0.00    +0.345 A 
ATOM      3  N   UNL     1     -14.928   0.383  -5.178  0.00  0.00    -0.217 N 
ATOM      4  C   UNL     1     -14.263   0.977  -3.972  0.00  0.00    +0.178 C 
ATOM      5  N   UNL     1     -15.397   1.273  -6.125  0.00  0.00    -0.157 NA
ATOM      6  C   UNL     1     -15.970   0.812  -7.202  0.00  0.00    +0.210 A 
ATOM      7  C   UNL     1     -16.104  -0.678  -7.416  0.00  0.00    +0.285 A 
ATOM      8  O   UNL     1     -16.705  -1.119  -8.387  0.00  0.00    -0.265 OA
ATOM      9  N   UNL     1     -15.516  -1.466  -6.475  0.00  0.00    -0.272 N 
ATOM     10  H   UNL     1     -15.558  -2.466  -6.586  0.00  0.00    +0.174 HD
ENDROOT
BRANCH   6  11
ATOM     11  C   UNL     1     -16.489   1.839  -8.217  0.00  0.00    +0.269 C 
ATOM     12  N   UNL     1     -17.842   1.798  -8.489  0.00  0.00    -0.313 N 
ATOM     13  H   UNL     1     -18.438   1.187  -7.931  0.00  0.00    +0.149 HD
ATOM     14  C   UNL     1     -18.469   2.771  -9.346  0.00  0.00    +0.128 C 
ATOM     15  O   UNL     1     -15.718   2.640  -8.730  0.00  0.00    -0.268 OA
ENDBRANCH   6  11
TORSDOF 1
ENDMDL
MODEL 7
REMARK VINA RESULT:      -4.6      2.439      4.939
REMARK  Name = min_compound98.pdb
REMARK  3 active torsions:
REMARK  status: ('A' for Active; 'I' for Inactive)
REMARK    1  A    between atoms: _4  and  _10
REMARK    2  A    between atoms: _8  and  _11
REMARK    3  A    between atoms: _13  and  _14
REMARK                            x       y       z     vdW  Elec       q    Type
REMARK                         _______ _______ _______ _____ _____    ______ ____
ROOT
ATOM      1  O   UNL     1     -15.034   4.988 -17.364  0.00  0.00    -0.245 OA
ATOM      2  C   UNL     1     -14.336   3.977 -17.313  0.00  0.00    +0.345 A 
ATOM      3  N   UNL     1     -13.887   3.387 -16.136  0.00  0.00    -0.217 N 
ATOM      4  C   UNL     1     -14.298   3.979 -14.820  0.00  0.00    +0.178 C 
ATOM      5  N   UNL     1     -13.187   2.197 -16.085  0.00  0.00    -0.157 NA
ATOM      6  C   UNL     1     -12.817   1.629 -17.200  0.00  0.00    +0.210 A 
ATOM      7  C   UNL     1     -13.168   2.257 -18.528  0.00  0.00    +0.285 A 
ATOM      8  O   UNL     1     -12.763   1.772 -19.576  0.00  0.00    -0.265 OA
ATOM      9  N   UNL     1     -13.949   3.370 -18.469  0.00  0.00    -0.272 N 
ATOM     10  H   UNL     1     -14.229   3.813 -19.330  0.00  0.00    +0.174 HD
ENDROOT
BRANCH   6  11
ATOM     11  C   UNL     1     -12.028   0.318 -17.091  0.00  0.00    +0.269 C 
ATOM     12  N   UNL     1     -10.765   0.319 -17.650  0.00  0.00    -0.313 N 
ATOM     13  H   UNL     1     -10.378   1.199 -17.990  0.00  0.00    +0.149 HD
ATOM     14  C   UNL     1      -9.885  -0.815 -17.528  0.00  0.00    +0.128 C 
ATOM     15  O   UNL     1     -12.520  -0.651 -16.528  0.00  0.00    -0.268 OA
ENDBRANCH   6  11
TORSDOF 1
ENDMDL
MODEL 8
REMARK VINA RESULT:      -4.4     11.506     13.099
REMARK  Name = min_compound98.pdb
REMARK  3 active torsions:
REMARK  status: ('A' for Active; 'I' for Inactive)
REMARK    1  A    between atoms: _4  and  _10
REMARK    2  A    between atoms: _8  and  _11
REMARK    3  A    between atoms: _13  and  _14
REMARK                            x       y       z     vdW  Elec       q    Type
REMARK                         _______ _______ _______ _____ _____    ______ ____
ROOT
ATOM      1  O   UNL     1     -15.839   2.275  -8.500  0.00  0.00    -0.245 OA
ATOM      2  C   UNL     1     -15.797   1.578  -7.488  0.00  0.00    +0.345 A 
ATOM      3  N   UNL     1     -16.909   1.209  -6.738  0.00  0.00    -0.217 N 
ATOM      4  C   UNL     1     -18.271   1.645  -7.189  0.00  0.00    +0.178 C 
ATOM      5  N   UNL     1     -16.862   0.345  -5.661  0.00  0.00    -0.157 NA
ATOM      6  C   UNL     1     -15.704  -0.079  -5.235  0.00  0.00    +0.210 A 
ATOM      7  C   UNL     1     -14.433   0.357  -5.925  0.00  0.00    +0.285 A 
ATOM      8  O   UNL     1     -13.338   0.024  -5.488  0.00  0.00    -0.265 OA
ATOM      9  N   UNL     1     -14.596   1.122  -7.038  0.00  0.00    -0.272 N 
ATOM     10  H   UNL     1     -13.778   1.420  -7.546  0.00  0.00    +0.174 HD
ENDROOT
BRANCH   6  11
ATOM     11  C   UNL     1     -15.703  -1.024  -4.026  0.00  0.00    +0.269 C 
ATOM     12  N   UNL     1     -14.860  -2.114  -4.106  0.00  0.00    -0.313 N 
ATOM     13  H   UNL     1     -14.206  -2.176  -4.886  0.00  0.00    +0.149 HD
ATOM     14  C   UNL     1     -14.693  -3.020  -2.999  0.00  0.00    +0.128 C 
ATOM     15  O   UNL     1     -16.417  -0.787  -3.061  0.00  0.00    -0.268 OA
ENDBRANCH   6  11
TORSDOF 1
ENDMDL
MODEL 9
REMARK VINA RESULT:      -4.4      1.784      4.836
REMARK  Name = min_compound98.pdb
REMARK  3 active torsions:
REMARK  status: ('A' for Active; 'I' for Inactive)
REMARK    1  A    between atoms: _4  and  _10
REMARK    2  A    between atoms: _8  and  _11
REMARK    3  A    between atoms: _13  and  _14
REMARK                            x       y       z     vdW  Elec       q    Type
REMARK                         _______ _______ _______ _____ _____    ______ ____
ROOT
ATOM      1  O   UNL     1     -14.837   5.150 -16.249  0.00  0.00    -0.245 OA
ATOM      2  C   UNL     1     -14.051   4.210 -16.352  0.00  0.00    +0.345 A 
ATOM      3  N   UNL     1     -14.354   2.891 -16.030  0.00  0.00    -0.217 N 
ATOM      4  C   UNL     1     -15.736   2.553 -15.556  0.00  0.00    +0.178 C 
ATOM      5  N   UNL     1     -13.497   1.827 -16.242  0.00  0.00    -0.157 NA
ATOM      6  C   UNL     1     -12.287   2.061 -16.669  0.00  0.00    +0.210 A 
ATOM      7  C   UNL     1     -11.836   3.476 -16.943  0.00  0.00    +0.285 A 
ATOM      8  O   UNL     1     -10.680   3.712 -17.272  0.00  0.00    -0.265 OA
ATOM      9  N   UNL     1     -12.787   4.439 -16.803  0.00  0.00    -0.272 N 
ATOM     10  H   UNL     1     -12.541   5.396 -16.997  0.00  0.00    +0.174 HD
ENDROOT
BRANCH   6  11
ATOM     11  C   UNL     1     -11.368   0.849 -16.874  0.00  0.00    +0.269 C 
ATOM     12  N   UNL     1     -10.454   0.600 -15.870  0.00  0.00    -0.313 N 
ATOM     13  H   UNL     1     -10.510   1.142 -15.007  0.00  0.00    +0.149 HD
ATOM     14  C   UNL     1      -9.604  -0.562 -15.895  0.00  0.00    +0.128 C 
ATOM     15  O   UNL     1     -11.475   0.160 -17.881  0.00  0.00    -0.268 OA
ENDBRANCH   6  11
TORSDOF 1
ENDMDL
