MODEL 1
REMARK VINA RESULT:      -3.8      0.000      0.000
REMARK  Name = min_compound3.pdb
REMARK  3 active torsions:
REMARK  status: ('A' for Active; 'I' for Inactive)
REMARK    1  A    between atoms: _3  and  _8
REMARK    2  A    between atoms: _8  and  _9
REMARK    3  A    between atoms: _9  and  _10
REMARK                            x       y       z     vdW  Elec       q    Type
REMARK                         _______ _______ _______ _____ _____    ______ ____
ROOT
ATOM      1  H   UNL     1     -11.143  -1.401 -18.031  0.00  0.00    +0.122 HD
ATOM      2  N   UNL     1     -11.167  -0.396 -17.856  0.00  0.00    -0.314 NA
ATOM      3  C   UNL     1     -12.048  -0.159 -16.686  0.00  0.00    +0.096 C 
ATOM      4  C   UNL     1     -12.313   1.456 -16.440  0.00  0.00    +0.099 C 
ATOM      5  N   UNL     1     -10.982   1.842 -15.868  0.00  0.00    -0.299 NA
ATOM      6  C   UNL     1     -10.101   1.602 -17.059  0.00  0.00    +0.099 C 
ATOM      7  C   UNL     1      -9.836  -0.010 -17.284  0.00  0.00    +0.096 C 
ENDROOT
BRANCH   5   8
ATOM      8  C   UNL     1     -10.976   3.297 -15.582  0.00  0.00    +0.099 C 
BRANCH   8   9
ATOM      9  C   UNL     1     -10.555   4.162 -16.789  0.00  0.00    +0.093 C 
BRANCH   9  10
ATOM     10  N   UNL     1     -11.646   5.033 -17.236  0.00  0.00    -0.329 NA
ATOM     11  H   UNL     1     -11.346   6.005 -17.171  0.00  0.00    +0.118 HD
ATOM     12  H   UNL     1     -12.429   4.938 -16.589  0.00  0.00    +0.118 HD
ENDBRANCH   9  10
ENDBRANCH   8   9
ENDBRANCH   5   8
TORSDOF 3
ENDMDL
MODEL 2
REMARK VINA RESULT:      -3.8      2.020      2.879
REMARK  Name = min_compound3.pdb
REMARK  3 active torsions:
REMARK  status: ('A' for Active; 'I' for Inactive)
REMARK    1  A    between atoms: _3  and  _8
REMARK    2  A    between atoms: _8  and  _9
REMARK    3  A    between atoms: _9  and  _10
REMARK                            x       y       z     vdW  Elec       q    Type
REMARK                         _______ _______ _______ _____ _____    ______ ____
ROOT
ATOM      1  H   UNL     1      -9.376  -1.473 -16.013  0.00  0.00    +0.122 HD
ATOM      2  N   UNL     1      -9.877  -0.587 -16.076  0.00  0.00    -0.314 NA
ATOM      3  C   UNL     1      -9.454   0.088 -17.329  0.00  0.00    +0.096 C 
ATOM      4  C   UNL     1     -10.060   1.624 -17.427  0.00  0.00    +0.099 C 
ATOM      5  N   UNL     1     -11.489   1.308 -17.751  0.00  0.00    -0.299 NA
ATOM      6  C   UNL     1     -11.907   0.631 -16.478  0.00  0.00    +0.099 C 
ATOM      7  C   UNL     1     -11.306  -0.903 -16.400  0.00  0.00    +0.096 C 
ENDROOT
BRANCH   5   8
ATOM      8  C   UNL     1     -12.256   2.572 -17.868  0.00  0.00    +0.099 C 
BRANCH   8   9
ATOM      9  C   UNL     1     -13.328   2.543 -18.979  0.00  0.00    +0.093 C 
BRANCH   9  10
ATOM     10  N   UNL     1     -12.999   1.568 -20.022  0.00  0.00    -0.329 NA
ATOM     11  H   UNL     1     -13.760   1.532 -20.698  0.00  0.00    +0.118 HD
ATOM     12  H   UNL     1     -12.953   0.640 -19.602  0.00  0.00    +0.118 HD
ENDBRANCH   9  10
ENDBRANCH   8   9
ENDBRANCH   5   8
TORSDOF 3
ENDMDL
MODEL 3
REMARK VINA RESULT:      -3.6     12.119     12.819
REMARK  Name = min_compound3.pdb
REMARK  3 active torsions:
REMARK  status: ('A' for Active; 'I' for Inactive)
REMARK    1  A    between atoms: _3  and  _8
REMARK    2  A    between atoms: _8  and  _9
REMARK    3  A    between atoms: _9  and  _10
REMARK                            x       y       z     vdW  Elec       q    Type
REMARK                         _______ _______ _______ _____ _____    ______ ____
ROOT
ATOM      1  H   UNL     1     -14.682  -2.418  -6.024  0.00  0.00    +0.122 HD
ATOM      2  N   UNL     1     -14.915  -1.483  -5.688  0.00  0.00    -0.314 NA
ATOM      3  C   UNL     1     -14.537  -1.407  -4.255  0.00  0.00    +0.096 C 
ATOM      4  C   UNL     1     -15.056   0.003  -3.562  0.00  0.00    +0.099 C 
ATOM      5  N   UNL     1     -14.065   0.955  -4.162  0.00  0.00    -0.299 NA
ATOM      6  C   UNL     1     -14.459   0.873  -5.608  0.00  0.00    +0.099 C 
ATOM      7  C   UNL     1     -13.924  -0.532  -6.288  0.00  0.00    +0.096 C 
ENDROOT
BRANCH   5   8
ATOM      8  C   UNL     1     -14.357   2.330  -3.687  0.00  0.00    +0.099 C 
BRANCH   8   9
ATOM      9  C   UNL     1     -15.752   2.843  -4.103  0.00  0.00    +0.093 C 
BRANCH   9  10
ATOM     10  N   UNL     1     -15.903   4.275  -3.830  0.00  0.00    -0.329 NA
ATOM     11  H   UNL     1     -16.797   4.593  -4.202  0.00  0.00    +0.118 HD
ATOM     12  H   UNL     1     -15.187   4.786  -4.347  0.00  0.00    +0.118 HD
ENDBRANCH   9  10
ENDBRANCH   8   9
ENDBRANCH   5   8
TORSDOF 3
ENDMDL
MODEL 4
REMARK VINA RESULT:      -3.6      1.307      3.979
REMARK  Name = min_compound3.pdb
REMARK  3 active torsions:
REMARK  status: ('A' for Active; 'I' for Inactive)
REMARK    1  A    between atoms: _3  and  _8
REMARK    2  A    between atoms: _8  and  _9
REMARK    3  A    between atoms: _9  and  _10
REMARK                            x       y       z     vdW  Elec       q    Type
REMARK                         _______ _______ _______ _____ _____    ______ ____
ROOT
ATOM      1  H   UNL     1     -11.100   5.108 -16.769  0.00  0.00    +0.122 HD
ATOM      2  N   UNL     1     -11.018   4.107 -16.948  0.00  0.00    -0.314 NA
ATOM      3  C   UNL     1     -11.113   3.403 -15.644  0.00  0.00    +0.096 C 
ATOM      4  C   UNL     1     -10.792   1.787 -15.800  0.00  0.00    +0.099 C 
ATOM      5  N   UNL     1     -12.067   1.342 -16.449  0.00  0.00    -0.299 NA
ATOM      6  C   UNL     1     -11.959   2.055 -17.765  0.00  0.00    +0.099 C 
ATOM      7  C   UNL     1     -12.293   3.661 -17.597  0.00  0.00    +0.096 C 
ENDROOT
BRANCH   5   8
ATOM      8  C   UNL     1     -11.999  -0.116 -16.713  0.00  0.00    +0.099 C 
BRANCH   8   9
ATOM      9  C   UNL     1     -10.614  -0.733 -16.421  0.00  0.00    +0.093 C 
BRANCH   9  10
ATOM     10  N   UNL     1      -9.893  -1.050 -17.656  0.00  0.00    -0.329 NA
ATOM     11  H   UNL     1      -9.252  -1.823 -17.479  0.00  0.00    +0.118 HD
ATOM     12  H   UNL     1      -9.308  -0.254 -17.909  0.00  0.00    +0.118 HD
ENDBRANCH   9  10
ENDBRANCH   8   9
ENDBRANCH   5   8
TORSDOF 3
ENDMDL
MODEL 5
REMARK VINA RESULT:      -3.5      1.628      3.857
REMARK  Name = min_compound3.pdb
REMARK  3 active torsions:
REMARK  status: ('A' for Active; 'I' for Inactive)
REMARK    1  A    between atoms: _3  and  _8
REMARK    2  A    between atoms: _8  and  _9
REMARK    3  A    between atoms: _9  and  _10
REMARK                            x       y       z     vdW  Elec       q    Type
REMARK                         _______ _______ _______ _____ _____    ______ ____
ROOT
ATOM      1  H   UNL     1     -13.332   4.213 -15.578  0.00  0.00    +0.122 HD
ATOM      2  N   UNL     1     -12.713   3.408 -15.675  0.00  0.00    -0.314 NA
ATOM      3  C   UNL     1     -13.410   2.396 -16.509  0.00  0.00    +0.096 C 
ATOM      4  C   UNL     1     -12.572   0.970 -16.562  0.00  0.00    +0.099 C 
ATOM      5  N   UNL     1     -11.458   1.370 -17.482  0.00  0.00    -0.299 NA
ATOM      6  C   UNL     1     -10.760   2.388 -16.628  0.00  0.00    +0.099 C 
ATOM      7  C   UNL     1     -11.599   3.807 -16.595  0.00  0.00    +0.096 C 
ENDROOT
BRANCH   5   8
ATOM      8  C   UNL     1     -10.538   0.220 -17.665  0.00  0.00    +0.099 C 
BRANCH   8   9
ATOM      9  C   UNL     1     -10.554  -0.777 -16.487  0.00  0.00    +0.093 C 
BRANCH   9  10
ATOM     10  N   UNL     1      -9.242  -0.869 -15.841  0.00  0.00    -0.329 NA
ATOM     11  H   UNL     1      -8.803   0.050 -15.843  0.00  0.00    +0.118 HD
ATOM     12  H   UNL     1      -8.639  -1.470 -16.404  0.00  0.00    +0.118 HD
ENDBRANCH   9  10
ENDBRANCH   8   9
ENDBRANCH   5   8
TORSDOF 3
ENDMDL
MODEL 6
REMARK VINA RESULT:      -3.5     11.427     12.230
REMARK  Name = min_compound3.pdb
REMARK  3 active torsions:
REMARK  status: ('A' for Active; 'I' for Inactive)
REMARK    1  A    between atoms: _3  and  _8
REMARK    2  A    between atoms: _8  and  _9
REMARK    3  A    between atoms: _9  and  _10
REMARK                            x       y       z     vdW  Elec       q    Type
REMARK                         _______ _______ _______ _____ _____    ______ ____
ROOT
ATOM      1  H   UNL     1     -14.432  -2.292  -6.879  0.00  0.00    +0.122 HD
ATOM      2  N   UNL     1     -14.889  -1.572  -6.319  0.00  0.00    -0.314 NA
ATOM      3  C   UNL     1     -14.059  -0.344  -6.392  0.00  0.00    +0.096 C 
ATOM      4  C   UNL     1     -14.607   0.824  -5.356  0.00  0.00    +0.099 C 
ATOM      5  N   UNL     1     -15.827   1.268  -6.105  0.00  0.00    -0.299 NA
ATOM      6  C   UNL     1     -16.659   0.022  -6.021  0.00  0.00    +0.099 C 
ATOM      7  C   UNL     1     -16.109  -1.128  -7.067  0.00  0.00    +0.096 C 
ENDROOT
BRANCH   5   8
ATOM      8  C   UNL     1     -16.517   2.330  -5.332  0.00  0.00    +0.099 C 
BRANCH   8   9
ATOM      9  C   UNL     1     -15.776   2.733  -4.039  0.00  0.00    +0.093 C 
BRANCH   9  10
ATOM     10  N   UNL     1     -15.865   4.174  -3.792  0.00  0.00    -0.329 NA
ATOM     11  H   UNL     1     -14.992   4.497  -3.377  0.00  0.00    +0.118 HD
ATOM     12  H   UNL     1     -16.588   4.344  -3.092  0.00  0.00    +0.118 HD
ENDBRANCH   9  10
ENDBRANCH   8   9
ENDBRANCH   5   8
TORSDOF 3
ENDMDL
MODEL 7
REMARK VINA RESULT:      -3.4     11.886     13.006
REMARK  Name = min_compound3.pdb
REMARK  3 active torsions:
REMARK  status: ('A' for Active; 'I' for Inactive)
REMARK    1  A    between atoms: _3  and  _8
REMARK    2  A    between atoms: _8  and  _9
REMARK    3  A    between atoms: _9  and  _10
REMARK                            x       y       z     vdW  Elec       q    Type
REMARK                         _______ _______ _______ _____ _____    ______ ____
ROOT
ATOM      1  H   UNL     1     -13.378   1.243  -2.144  0.00  0.00    +0.122 HD
ATOM      2  N   UNL     1     -13.419   0.825  -3.073  0.00  0.00    -0.314 NA
ATOM      3  C   UNL     1     -14.421  -0.270  -3.037  0.00  0.00    +0.096 C 
ATOM      4  C   UNL     1     -14.420  -1.142  -4.443  0.00  0.00    +0.099 C 
ATOM      5  N   UNL     1     -15.112  -0.164  -5.343  0.00  0.00    -0.299 NA
ATOM      6  C   UNL     1     -14.090   0.935  -5.376  0.00  0.00    +0.099 C 
ATOM      7  C   UNL     1     -14.111   1.804  -3.974  0.00  0.00    +0.096 C 
ENDROOT
BRANCH   5   8
ATOM      8  C   UNL     1     -15.209  -0.737  -6.708  0.00  0.00    +0.099 C 
BRANCH   8   9
ATOM      9  C   UNL     1     -16.660  -0.901  -7.207  0.00  0.00    +0.093 C 
BRANCH   9  10
ATOM     10  N   UNL     1     -17.543  -1.397  -6.147  0.00  0.00    -0.329 NA
ATOM     11  H   UNL     1     -16.994  -1.558  -5.304  0.00  0.00    +0.118 HD
ATOM     12  H   UNL     1     -17.908  -2.308  -6.424  0.00  0.00    +0.118 HD
ENDBRANCH   9  10
ENDBRANCH   8   9
ENDBRANCH   5   8
TORSDOF 3
ENDMDL
MODEL 8
REMARK VINA RESULT:      -3.4     11.894     12.741
REMARK  Name = min_compound3.pdb
REMARK  3 active torsions:
REMARK  status: ('A' for Active; 'I' for Inactive)
REMARK    1  A    between atoms: _3  and  _8
REMARK    2  A    between atoms: _8  and  _9
REMARK    3  A    between atoms: _9  and  _10
REMARK                            x       y       z     vdW  Elec       q    Type
REMARK                         _______ _______ _______ _____ _____    ______ ____
ROOT
ATOM      1  H   UNL     1     -16.998  -1.420  -7.775  0.00  0.00    +0.122 HD
ATOM      2  N   UNL     1     -16.508  -1.379  -6.881  0.00  0.00    -0.314 NA
ATOM      3  C   UNL     1     -15.338  -0.481  -7.044  0.00  0.00    +0.096 C 
ATOM      4  C   UNL     1     -14.363  -0.502  -5.707  0.00  0.00    +0.099 C 
ATOM      5  N   UNL     1     -15.207   0.309  -4.771  0.00  0.00    -0.299 NA
ATOM      6  C   UNL     1     -16.384  -0.610  -4.610  0.00  0.00    +0.099 C 
ATOM      7  C   UNL     1     -17.352  -0.569  -5.945  0.00  0.00    +0.096 C 
ENDROOT
BRANCH   5   8
ATOM      8  C   UNL     1     -14.525   0.408  -3.457  0.00  0.00    +0.099 C 
BRANCH   8   9
ATOM      9  C   UNL     1     -13.424   1.490  -3.415  0.00  0.00    +0.093 C 
BRANCH   9  10
ATOM     10  N   UNL     1     -13.965   2.823  -3.694  0.00  0.00    -0.329 NA
ATOM     11  H   UNL     1     -13.200   3.450  -3.938  0.00  0.00    +0.118 HD
ATOM     12  H   UNL     1     -14.374   3.198  -2.838  0.00  0.00    +0.118 HD
ENDBRANCH   9  10
ENDBRANCH   8   9
ENDBRANCH   5   8
TORSDOF 3
ENDMDL
MODEL 9
REMARK VINA RESULT:      -3.4      2.008      2.231
REMARK  Name = min_compound3.pdb
REMARK  3 active torsions:
REMARK  status: ('A' for Active; 'I' for Inactive)
REMARK    1  A    between atoms: _3  and  _8
REMARK    2  A    between atoms: _8  and  _9
REMARK    3  A    between atoms: _9  and  _10
REMARK                            x       y       z     vdW  Elec       q    Type
REMARK                         _______ _______ _______ _____ _____    ______ ____
ROOT
ATOM      1  H   UNL     1      -9.292  -0.983 -17.316  0.00  0.00    +0.122 HD
ATOM      2  N   UNL     1      -9.636  -0.037 -17.151  0.00  0.00    -0.314 NA
ATOM      3  C   UNL     1     -10.992   0.065 -17.745  0.00  0.00    +0.096 C 
ATOM      4  C   UNL     1     -11.559   1.619 -17.706  0.00  0.00    +0.099 C 
ATOM      5  N   UNL     1     -11.886   1.729 -16.248  0.00  0.00    -0.299 NA
ATOM      6  C   UNL     1     -10.509   1.630 -15.658  0.00  0.00    +0.099 C 
ATOM      7  C   UNL     1      -9.963   0.074 -15.692  0.00  0.00    +0.096 C 
ENDROOT
BRANCH   5   8
ATOM      8  C   UNL     1     -12.406   3.089 -15.963  0.00  0.00    +0.099 C 
BRANCH   8   9
ATOM      9  C   UNL     1     -13.880   3.103 -15.506  0.00  0.00    +0.093 C 
BRANCH   9  10
ATOM     10  N   UNL     1     -14.787   2.720 -16.593  0.00  0.00    -0.329 NA
ATOM     11  H   UNL     1     -15.406   1.980 -16.266  0.00  0.00    +0.118 HD
ATOM     12  H   UNL     1     -14.238   2.313 -17.350  0.00  0.00    +0.118 HD
ENDBRANCH   9  10
ENDBRANCH   8   9
ENDBRANCH   5   8
TORSDOF 3
ENDMDL
