MODEL 1
REMARK VINA RESULT:      -5.6      0.000      0.000
REMARK  Name = min_compound92.pdb
REMARK  1 active torsions:
REMARK  status: ('A' for Active; 'I' for Inactive)
REMARK    1  A    between atoms: _12  and  _13
REMARK                            x       y       z     vdW  Elec       q    Type
REMARK                         _______ _______ _______ _____ _____    ______ ____
ROOT
ATOM      1  O   UNL     1      -8.692  -0.015 -17.557  0.00  0.00    -0.268 OA
ATOM      2  C   UNL     1      -9.838   0.329 -17.293  0.00  0.00    +0.255 A 
ATOM      3  C   UNL     1     -10.224   1.753 -17.374  0.00  0.00    +0.099 A 
ATOM      4  C   UNL     1     -11.483   2.096 -17.078  0.00  0.00    +0.094 A 
ATOM      5  N   UNL     1     -12.385   1.132 -16.708  0.00  0.00    -0.305 N 
ATOM      6  H   UNL     1     -13.340   1.405 -16.485  0.00  0.00    +0.170 HD
ATOM      7  C   UNL     1     -12.097  -0.198 -16.613  0.00  0.00    +0.327 A 
ATOM      8  O   UNL     1     -12.934  -1.028 -16.278  0.00  0.00    -0.247 OA
ATOM      9  N   UNL     1     -10.812  -0.544 -16.915  0.00  0.00    -0.275 N 
ATOM     10  H   UNL     1     -10.574  -1.521 -16.852  0.00  0.00    +0.173 HD
ENDROOT
BRANCH   4  11
ATOM     11  C   UNL     1     -11.976   3.426 -17.118  0.00  0.00    +0.196 A 
ATOM     12  N   UNL     1     -11.200   4.506 -17.445  0.00  0.00    -0.238 N 
ATOM     13  H   UNL     1     -10.222   4.564 -17.698  0.00  0.00    +0.192 HD
ATOM     14  N   UNL     1     -11.924   5.631 -17.402  0.00  0.00    -0.046 NA
ATOM     15  N   UNL     1     -13.140   5.245 -17.049  0.00  0.00    -0.023 NA
ATOM     16  N   UNL     1     -13.190   3.885 -16.870  0.00  0.00    -0.107 NA
ENDBRANCH   4  11
TORSDOF 1
ENDMDL
MODEL 2
REMARK VINA RESULT:      -5.6      0.933      2.418
REMARK  Name = min_compound92.pdb
REMARK  1 active torsions:
REMARK  status: ('A' for Active; 'I' for Inactive)
REMARK    1  A    between atoms: _12  and  _13
REMARK                            x       y       z     vdW  Elec       q    Type
REMARK                         _______ _______ _______ _____ _____    ______ ____
ROOT
ATOM      1  O   UNL     1     -12.931  -1.009 -16.256  0.00  0.00    -0.268 OA
ATOM      2  C   UNL     1     -12.083  -0.207 -16.627  0.00  0.00    +0.255 A 
ATOM      3  C   UNL     1     -12.431   1.220 -16.790  0.00  0.00    +0.099 A 
ATOM      4  C   UNL     1     -11.482   2.070 -17.198  0.00  0.00    +0.094 A 
ATOM      5  N   UNL     1     -10.216   1.611 -17.454  0.00  0.00    -0.305 N 
ATOM      6  H   UNL     1      -9.502   2.267 -17.763  0.00  0.00    +0.170 HD
ATOM      7  C   UNL     1      -9.827   0.309 -17.324  0.00  0.00    +0.327 A 
ATOM      8  O   UNL     1      -8.683  -0.061 -17.564  0.00  0.00    -0.247 OA
ATOM      9  N   UNL     1     -10.797  -0.555 -16.909  0.00  0.00    -0.275 N 
ATOM     10  H   UNL     1     -10.536  -1.523 -16.805  0.00  0.00    +0.173 HD
ENDROOT
BRANCH   4  11
ATOM     11  C   UNL     1     -11.688   3.460 -17.392  0.00  0.00    +0.196 A 
ATOM     12  N   UNL     1     -12.676   3.968 -18.194  0.00  0.00    -0.238 N 
ATOM     13  H   UNL     1     -13.381   3.502 -18.750  0.00  0.00    +0.192 HD
ATOM     14  N   UNL     1     -12.637   5.306 -18.191  0.00  0.00    -0.046 NA
ATOM     15  N   UNL     1     -11.631   5.620 -17.391  0.00  0.00    -0.023 NA
ATOM     16  N   UNL     1     -11.033   4.491 -16.888  0.00  0.00    -0.107 NA
ENDBRANCH   4  11
TORSDOF 1
ENDMDL
MODEL 3
REMARK VINA RESULT:      -5.5      2.714      3.280
REMARK  Name = min_compound92.pdb
REMARK  1 active torsions:
REMARK  status: ('A' for Active; 'I' for Inactive)
REMARK    1  A    between atoms: _12  and  _13
REMARK                            x       y       z     vdW  Elec       q    Type
REMARK                         _______ _______ _______ _____ _____    ______ ____
ROOT
ATOM      1  O   UNL     1     -10.273  -0.563 -15.763  0.00  0.00    -0.268 OA
ATOM      2  C   UNL     1     -10.670   0.542 -16.111  0.00  0.00    +0.255 A 
ATOM      3  C   UNL     1     -11.625   0.670 -17.232  0.00  0.00    +0.099 A 
ATOM      4  C   UNL     1     -12.038   1.892 -17.588  0.00  0.00    +0.094 A 
ATOM      5  N   UNL     1     -11.575   2.994 -16.916  0.00  0.00    -0.305 N 
ATOM      6  H   UNL     1     -11.897   3.918 -17.195  0.00  0.00    +0.170 HD
ATOM      7  C   UNL     1     -10.694   2.948 -15.875  0.00  0.00    +0.327 A 
ATOM      8  O   UNL     1     -10.305   3.959 -15.300  0.00  0.00    -0.247 OA
ATOM      9  N   UNL     1     -10.275   1.701 -15.515  0.00  0.00    -0.275 N 
ATOM     10  H   UNL     1      -9.623   1.640 -14.748  0.00  0.00    +0.173 HD
ENDROOT
BRANCH   4  11
ATOM     11  C   UNL     1     -12.951   2.148 -18.643  0.00  0.00    +0.196 A 
ATOM     12  N   UNL     1     -12.895   1.512 -19.856  0.00  0.00    -0.238 N 
ATOM     13  H   UNL     1     -12.257   0.808 -20.203  0.00  0.00    +0.192 HD
ATOM     14  N   UNL     1     -13.875   1.948 -20.657  0.00  0.00    -0.046 NA
ATOM     15  N   UNL     1     -14.532   2.847 -19.940  0.00  0.00    -0.023 NA
ATOM     16  N   UNL     1     -13.974   2.983 -18.693  0.00  0.00    -0.107 NA
ENDBRANCH   4  11
TORSDOF 1
ENDMDL
MODEL 4
REMARK VINA RESULT:      -5.4      3.118      4.806
REMARK  Name = min_compound92.pdb
REMARK  1 active torsions:
REMARK  status: ('A' for Active; 'I' for Inactive)
REMARK    1  A    between atoms: _12  and  _13
REMARK                            x       y       z     vdW  Elec       q    Type
REMARK                         _______ _______ _______ _____ _____    ______ ____
ROOT
ATOM      1  O   UNL     1     -15.074   3.869 -17.187  0.00  0.00    -0.268 OA
ATOM      2  C   UNL     1     -14.265   3.103 -17.695  0.00  0.00    +0.255 A 
ATOM      3  C   UNL     1     -13.322   2.348 -16.843  0.00  0.00    +0.099 A 
ATOM      4  C   UNL     1     -12.450   1.519 -17.429  0.00  0.00    +0.094 A 
ATOM      5  N   UNL     1     -12.444   1.384 -18.793  0.00  0.00    -0.305 N 
ATOM      6  H   UNL     1     -11.776   0.751 -19.227  0.00  0.00    +0.170 HD
ATOM      7  C   UNL     1     -13.285   2.050 -19.637  0.00  0.00    +0.327 A 
ATOM      8  O   UNL     1     -13.247   1.900 -20.853  0.00  0.00    -0.247 OA
ATOM      9  N   UNL     1     -14.173   2.894 -19.037  0.00  0.00    -0.275 N 
ATOM     10  H   UNL     1     -14.805   3.398 -19.639  0.00  0.00    +0.173 HD
ENDROOT
BRANCH   4  11
ATOM     11  C   UNL     1     -11.496   0.740 -16.724  0.00  0.00    +0.196 A 
ATOM     12  N   UNL     1     -10.611   1.270 -15.823  0.00  0.00    -0.238 N 
ATOM     13  H   UNL     1     -10.476   2.223 -15.512  0.00  0.00    +0.192 HD
ATOM     14  N   UNL     1      -9.833   0.307 -15.313  0.00  0.00    -0.046 NA
ATOM     15  N   UNL     1     -10.237  -0.809 -15.897  0.00  0.00    -0.023 NA
ATOM     16  N   UNL     1     -11.264  -0.560 -16.773  0.00  0.00    -0.107 NA
ENDBRANCH   4  11
TORSDOF 1
ENDMDL
MODEL 5
REMARK VINA RESULT:      -5.4      2.598      4.682
REMARK  Name = min_compound92.pdb
REMARK  1 active torsions:
REMARK  status: ('A' for Active; 'I' for Inactive)
REMARK    1  A    between atoms: _12  and  _13
REMARK                            x       y       z     vdW  Elec       q    Type
REMARK                         _______ _______ _______ _____ _____    ______ ____
ROOT
ATOM      1  O   UNL     1     -11.451   5.703 -17.258  0.00  0.00    -0.268 OA
ATOM      2  C   UNL     1     -11.758   4.549 -17.527  0.00  0.00    +0.255 A 
ATOM      3  C   UNL     1     -10.959   3.425 -16.995  0.00  0.00    +0.099 A 
ATOM      4  C   UNL     1     -11.320   2.175 -17.308  0.00  0.00    +0.094 A 
ATOM      5  N   UNL     1     -12.413   1.958 -18.106  0.00  0.00    -0.305 N 
ATOM      6  H   UNL     1     -12.678   1.003 -18.337  0.00  0.00    +0.170 HD
ATOM      7  C   UNL     1     -13.194   2.947 -18.630  0.00  0.00    +0.327 A 
ATOM      8  O   UNL     1     -14.164   2.710 -19.340  0.00  0.00    -0.247 OA
ATOM      9  N   UNL     1     -12.822   4.220 -18.310  0.00  0.00    -0.275 N 
ATOM     10  H   UNL     1     -13.383   4.969 -18.684  0.00  0.00    +0.173 HD
ENDROOT
BRANCH   4  11
ATOM     11  C   UNL     1     -10.637   1.014 -16.861  0.00  0.00    +0.196 A 
ATOM     12  N   UNL     1     -10.598  -0.156 -17.574  0.00  0.00    -0.238 N 
ATOM     13  H   UNL     1     -11.006  -0.399 -18.467  0.00  0.00    +0.192 HD
ATOM     14  N   UNL     1      -9.886  -1.079 -16.916  0.00  0.00    -0.046 NA
ATOM     15  N   UNL     1      -9.489  -0.481 -15.805  0.00  0.00    -0.023 NA
ATOM     16  N   UNL     1      -9.944   0.813 -15.754  0.00  0.00    -0.107 NA
ENDBRANCH   4  11
TORSDOF 1
ENDMDL
MODEL 6
REMARK VINA RESULT:      -5.4      2.486      5.106
REMARK  Name = min_compound92.pdb
REMARK  1 active torsions:
REMARK  status: ('A' for Active; 'I' for Inactive)
REMARK    1  A    between atoms: _12  and  _13
REMARK                            x       y       z     vdW  Elec       q    Type
REMARK                         _______ _______ _______ _____ _____    ______ ____
ROOT
ATOM      1  O   UNL     1     -15.157   2.977 -16.282  0.00  0.00    -0.268 OA
ATOM      2  C   UNL     1     -13.941   3.045 -16.411  0.00  0.00    +0.255 A 
ATOM      3  C   UNL     1     -13.114   1.823 -16.318  0.00  0.00    +0.099 A 
ATOM      4  C   UNL     1     -11.788   1.932 -16.463  0.00  0.00    +0.094 A 
ATOM      5  N   UNL     1     -11.223   3.160 -16.693  0.00  0.00    -0.305 N 
ATOM      6  H   UNL     1     -10.214   3.230 -16.801  0.00  0.00    +0.170 HD
ATOM      7  C   UNL     1     -11.926   4.326 -16.789  0.00  0.00    +0.327 A 
ATOM      8  O   UNL     1     -11.381   5.404 -16.996  0.00  0.00    -0.247 OA
ATOM      9  N   UNL     1     -13.277   4.211 -16.641  0.00  0.00    -0.275 N 
ATOM     10  H   UNL     1     -13.819   5.059 -16.708  0.00  0.00    +0.173 HD
ENDROOT
BRANCH   4  11
ATOM     11  C   UNL     1     -10.888   0.837 -16.396  0.00  0.00    +0.196 A 
ATOM     12  N   UNL     1     -10.850  -0.163 -17.331  0.00  0.00    -0.238 N 
ATOM     13  H   UNL     1     -11.399  -0.306 -18.168  0.00  0.00    +0.192 HD
ATOM     14  N   UNL     1      -9.907  -1.060 -17.016  0.00  0.00    -0.046 NA
ATOM     15  N   UNL     1      -9.368  -0.613 -15.893  0.00  0.00    -0.023 NA
ATOM     16  N   UNL     1      -9.962   0.558 -15.495  0.00  0.00    -0.107 NA
ENDBRANCH   4  11
TORSDOF 1
ENDMDL
MODEL 7
REMARK VINA RESULT:      -5.3      2.911      4.775
REMARK  Name = min_compound92.pdb
REMARK  1 active torsions:
REMARK  status: ('A' for Active; 'I' for Inactive)
REMARK    1  A    between atoms: _12  and  _13
REMARK                            x       y       z     vdW  Elec       q    Type
REMARK                         _______ _______ _______ _____ _____    ______ ____
ROOT
ATOM      1  O   UNL     1     -11.496   6.600 -17.782  0.00  0.00    -0.268 OA
ATOM      2  C   UNL     1     -11.940   5.540 -17.357  0.00  0.00    +0.255 A 
ATOM      3  C   UNL     1     -11.046   4.376 -17.185  0.00  0.00    +0.099 A 
ATOM      4  C   UNL     1     -11.561   3.232 -16.719  0.00  0.00    +0.094 A 
ATOM      5  N   UNL     1     -12.895   3.159 -16.411  0.00  0.00    -0.305 N 
ATOM      6  H   UNL     1     -13.276   2.284 -16.057  0.00  0.00    +0.170 HD
ATOM      7  C   UNL     1     -13.776   4.193 -16.545  0.00  0.00    +0.327 A 
ATOM      8  O   UNL     1     -14.962   4.085 -16.258  0.00  0.00    -0.247 OA
ATOM      9  N   UNL     1     -13.246   5.357 -17.021  0.00  0.00    -0.275 N 
ATOM     10  H   UNL     1     -13.877   6.136 -17.129  0.00  0.00    +0.173 HD
ENDROOT
BRANCH   4  11
ATOM     11  C   UNL     1     -10.810   2.047 -16.510  0.00  0.00    +0.196 A 
ATOM     12  N   UNL     1     -10.500   1.563 -15.266  0.00  0.00    -0.238 N 
ATOM     13  H   UNL     1     -10.723   1.917 -14.346  0.00  0.00    +0.192 HD
ATOM     14  N   UNL     1      -9.786   0.435 -15.370  0.00  0.00    -0.046 NA
ATOM     15  N   UNL     1      -9.657   0.227 -16.670  0.00  0.00    -0.023 NA
ATOM     16  N   UNL     1     -10.284   1.213 -17.390  0.00  0.00    -0.107 NA
ENDBRANCH   4  11
TORSDOF 1
ENDMDL
MODEL 8
REMARK VINA RESULT:      -5.3     13.401     14.609
REMARK  Name = min_compound92.pdb
REMARK  1 active torsions:
REMARK  status: ('A' for Active; 'I' for Inactive)
REMARK    1  A    between atoms: _12  and  _13
REMARK                            x       y       z     vdW  Elec       q    Type
REMARK                         _______ _______ _______ _____ _____    ______ ____
ROOT
ATOM      1  O   UNL     1     -13.491   2.698  -3.540  0.00  0.00    -0.268 OA
ATOM      2  C   UNL     1     -13.797   1.605  -3.998  0.00  0.00    +0.255 A 
ATOM      3  C   UNL     1     -14.029   0.459  -3.094  0.00  0.00    +0.099 A 
ATOM      4  C   UNL     1     -14.361  -0.723  -3.627  0.00  0.00    +0.094 A 
ATOM      5  N   UNL     1     -14.480  -0.852  -4.987  0.00  0.00    -0.305 N 
ATOM      6  H   UNL     1     -14.734  -1.755  -5.380  0.00  0.00    +0.170 HD
ATOM      7  C   UNL     1     -14.281   0.163  -5.877  0.00  0.00    +0.327 A 
ATOM      8  O   UNL     1     -14.398   0.006  -7.087  0.00  0.00    -0.247 OA
ATOM      9  N   UNL     1     -13.942   1.366  -5.331  0.00  0.00    -0.275 N 
ATOM     10  H   UNL     1     -13.789   2.132  -5.968  0.00  0.00    +0.173 HD
ENDROOT
BRANCH   4  11
ATOM     11  C   UNL     1     -14.610  -1.896  -2.869  0.00  0.00    +0.196 A 
ATOM     12  N   UNL     1     -15.611  -2.783  -3.163  0.00  0.00    -0.238 N 
ATOM     13  H   UNL     1     -16.302  -2.778  -3.902  0.00  0.00    +0.192 HD
ATOM     14  N   UNL     1     -15.613  -3.793  -2.284  0.00  0.00    -0.046 NA
ATOM     15  N   UNL     1     -14.617  -3.529  -1.453  0.00  0.00    -0.023 NA
ATOM     16  N   UNL     1     -13.986  -2.360  -1.800  0.00  0.00    -0.107 NA
ENDBRANCH   4  11
TORSDOF 1
ENDMDL
MODEL 9
REMARK VINA RESULT:      -5.2      2.727      3.183
REMARK  Name = min_compound92.pdb
REMARK  1 active torsions:
REMARK  status: ('A' for Active; 'I' for Inactive)
REMARK    1  A    between atoms: _12  and  _13
REMARK                            x       y       z     vdW  Elec       q    Type
REMARK                         _______ _______ _______ _____ _____    ______ ____
ROOT
ATOM      1  O   UNL     1     -10.133   4.168 -15.347  0.00  0.00    -0.268 OA
ATOM      2  C   UNL     1     -10.623   3.204 -15.922  0.00  0.00    +0.255 A 
ATOM      3  C   UNL     1     -11.573   3.407 -17.036  0.00  0.00    +0.099 A 
ATOM      4  C   UNL     1     -12.090   2.332 -17.644  0.00  0.00    +0.094 A 
ATOM      5  N   UNL     1     -11.734   1.075 -17.229  0.00  0.00    -0.305 N 
ATOM      6  H   UNL     1     -12.134   0.265 -17.699  0.00  0.00    +0.170 HD
ATOM      7  C   UNL     1     -10.864   0.816 -16.210  0.00  0.00    +0.327 A 
ATOM      8  O   UNL     1     -10.573  -0.325 -15.871  0.00  0.00    -0.247 OA
ATOM      9  N   UNL     1     -10.339   1.914 -15.593  0.00  0.00    -0.275 N 
ATOM     10  H   UNL     1      -9.694   1.749 -14.836  0.00  0.00    +0.173 HD
ENDROOT
BRANCH   4  11
ATOM     11  C   UNL     1     -13.010   2.393 -18.722  0.00  0.00    +0.196 A 
ATOM     12  N   UNL     1     -12.924   1.591 -19.829  0.00  0.00    -0.238 N 
ATOM     13  H   UNL     1     -12.257   0.871 -20.073  0.00  0.00    +0.192 HD
ATOM     14  N   UNL     1     -13.920   1.865 -20.682  0.00  0.00    -0.046 NA
ATOM     15  N   UNL     1     -14.614   2.831 -20.101  0.00  0.00    -0.023 NA
ATOM     16  N   UNL     1     -14.066   3.170 -18.890  0.00  0.00    -0.107 NA
ENDBRANCH   4  11
TORSDOF 1
ENDMDL
