MODEL 1
REMARK VINA RESULT:      -7.4      0.000      0.000
REMARK  Name = min_compound970.pdb
REMARK  2 active torsions:
REMARK  status: ('A' for Active; 'I' for Inactive)
REMARK    1  A    between atoms: _2  and  _17
REMARK    2  A    between atoms: _11  and  _12
REMARK                            x       y       z     vdW  Elec       q    Type
REMARK                         _______ _______ _______ _____ _____    ______ ____
ROOT
ATOM      1  C   UNL     1     -12.985   1.959 -19.155  0.00  0.00    +0.098 A 
ATOM      2  C   UNL     1     -12.367   2.107 -17.961  0.00  0.00    +0.053 A 
ATOM      3  N   UNL     1     -12.592   3.260 -17.208  0.00  0.00    -0.339 N 
ATOM      4  H   UNL     1     -12.167   3.308 -16.289  0.00  0.00    +0.167 HD
ATOM      5  C   UNL     1     -13.395   4.260 -17.639  0.00  0.00    +0.139 A 
ATOM      6  C   UNL     1     -13.758   5.479 -17.133  0.00  0.00    +0.079 A 
ATOM      7  C   UNL     1     -14.641   6.019 -18.101  0.00  0.00    +0.130 A 
ATOM      8  N   UNL     1     -14.820   5.191 -19.140  0.00  0.00    -0.159 NA
ATOM      9  N   UNL     1     -14.041   4.120 -18.849  0.00  0.00    -0.179 N 
ATOM     10  C   UNL     1     -13.911   3.001 -19.680  0.00  0.00    +0.275 A 
ATOM     11  O   UNL     1     -14.505   2.895 -20.745  0.00  0.00    -0.266 OA
ENDROOT
BRANCH   2  12
ATOM     12  C   UNL     1     -11.430   1.057 -17.425  0.00  0.00    -0.001 A 
ATOM     13  C   UNL     1     -11.893  -0.035 -16.662  0.00  0.00    +0.010 A 
ATOM     14  C   UNL     1     -11.024  -1.016 -16.167  0.00  0.00    +0.001 A 
ATOM     15  C   UNL     1      -9.660  -0.928 -16.408  0.00  0.00    +0.000 A 
ATOM     16  C   UNL     1      -9.168   0.137 -17.150  0.00  0.00    +0.001 A 
ATOM     17  C   UNL     1     -10.042   1.109 -17.658  0.00  0.00    +0.010 A 
ENDBRANCH   2  12
BRANCH   7  18
ATOM     18  C   UNL     1     -15.323   7.349 -18.030  0.00  0.00    +0.155 A 
ATOM     19  C   UNL     1     -15.086   8.353 -17.108  0.00  0.00    +0.051 A 
ATOM     20  C   UNL     1     -15.959   9.423 -17.426  0.00  0.00    +0.042 A 
ATOM     21  C   UNL     1     -16.679   9.012 -18.521  0.00  0.00    +0.196 A 
ATOM     22  O   UNL     1     -16.302   7.764 -18.894  0.00  0.00    -0.461 OA
ENDBRANCH   7  18
TORSDOF 2
ENDMDL
MODEL 2
REMARK VINA RESULT:      -7.3      8.248      9.011
REMARK  Name = min_compound970.pdb
REMARK  2 active torsions:
REMARK  status: ('A' for Active; 'I' for Inactive)
REMARK    1  A    between atoms: _2  and  _17
REMARK    2  A    between atoms: _11  and  _12
REMARK                            x       y       z     vdW  Elec       q    Type
REMARK                         _______ _______ _______ _____ _____    ______ ____
ROOT
ATOM      1  C   UNL     1     -17.754   2.223  -8.945  0.00  0.00    +0.098 A 
ATOM      2  C   UNL     1     -16.415   2.181  -8.763  0.00  0.00    +0.053 A 
ATOM      3  N   UNL     1     -15.596   3.068  -9.463  0.00  0.00    -0.339 N 
ATOM      4  H   UNL     1     -14.605   3.055  -9.252  0.00  0.00    +0.167 HD
ATOM      5  C   UNL     1     -16.093   3.967 -10.345  0.00  0.00    +0.139 A 
ATOM      6  C   UNL     1     -15.534   4.908 -11.167  0.00  0.00    +0.079 A 
ATOM      7  C   UNL     1     -16.637   5.510 -11.822  0.00  0.00    +0.130 A 
ATOM      8  N   UNL     1     -17.806   4.984 -11.432  0.00  0.00    -0.159 NA
ATOM      9  N   UNL     1     -17.457   4.030 -10.534  0.00  0.00    -0.179 N 
ATOM     10  C   UNL     1     -18.377   3.207  -9.874  0.00  0.00    +0.275 A 
ATOM     11  O   UNL     1     -19.586   3.290 -10.050  0.00  0.00    -0.266 OA
ENDROOT
BRANCH   2  12
ATOM     12  C   UNL     1     -15.779   1.188  -7.826  0.00  0.00    -0.001 A 
ATOM     13  C   UNL     1     -14.614   1.495  -7.092  0.00  0.00    +0.010 A 
ATOM     14  C   UNL     1     -14.025   0.575  -6.216  0.00  0.00    +0.001 A 
ATOM     15  C   UNL     1     -14.574  -0.689  -6.056  0.00  0.00    +0.000 A 
ATOM     16  C   UNL     1     -15.717  -1.028  -6.767  0.00  0.00    +0.001 A 
ATOM     17  C   UNL     1     -16.315  -0.100  -7.631  0.00  0.00    +0.010 A 
ENDBRANCH   2  12
BRANCH   7  18
ATOM     18  C   UNL     1     -16.568   6.608 -12.837  0.00  0.00    +0.155 A 
ATOM     19  C   UNL     1     -15.592   6.785 -13.801  0.00  0.00    +0.051 A 
ATOM     20  C   UNL     1     -15.937   7.949 -14.533  0.00  0.00    +0.042 A 
ATOM     21  C   UNL     1     -17.102   8.416 -13.974  0.00  0.00    +0.196 A 
ATOM     22  O   UNL     1     -17.492   7.613 -12.953  0.00  0.00    -0.461 OA
ENDBRANCH   7  18
TORSDOF 2
ENDMDL
MODEL 3
REMARK VINA RESULT:      -7.2      2.518      2.732
REMARK  Name = min_compound970.pdb
REMARK  2 active torsions:
REMARK  status: ('A' for Active; 'I' for Inactive)
REMARK    1  A    between atoms: _2  and  _17
REMARK    2  A    between atoms: _11  and  _12
REMARK                            x       y       z     vdW  Elec       q    Type
REMARK                         _______ _______ _______ _____ _____    ______ ____
ROOT
ATOM      1  C   UNL     1     -11.977   3.747 -17.737  0.00  0.00    +0.098 A 
ATOM      2  C   UNL     1     -12.181   2.736 -16.862  0.00  0.00    +0.053 A 
ATOM      3  N   UNL     1     -13.179   2.855 -15.893  0.00  0.00    -0.339 N 
ATOM      4  H   UNL     1     -13.349   2.053 -15.298  0.00  0.00    +0.167 HD
ATOM      5  C   UNL     1     -13.946   3.964 -15.778  0.00  0.00    +0.139 A 
ATOM      6  C   UNL     1     -14.946   4.349 -14.926  0.00  0.00    +0.079 A 
ATOM      7  C   UNL     1     -15.321   5.640 -15.376  0.00  0.00    +0.130 A 
ATOM      8  N   UNL     1     -14.606   6.032 -16.440  0.00  0.00    -0.159 NA
ATOM      9  N   UNL     1     -13.758   4.999 -16.669  0.00  0.00    -0.179 N 
ATOM     10  C   UNL     1     -12.805   4.986 -17.694  0.00  0.00    +0.275 A 
ATOM     11  O   UNL     1     -12.666   5.913 -18.481  0.00  0.00    -0.266 OA
ENDROOT
BRANCH   2  12
ATOM     12  C   UNL     1     -11.348   1.483 -16.900  0.00  0.00    -0.001 A 
ATOM     13  C   UNL     1     -11.837   0.248 -16.427  0.00  0.00    +0.010 A 
ATOM     14  C   UNL     1     -11.066  -0.921 -16.467  0.00  0.00    +0.001 A 
ATOM     15  C   UNL     1      -9.772  -0.888 -16.968  0.00  0.00    +0.000 A 
ATOM     16  C   UNL     1      -9.255   0.312 -17.436  0.00  0.00    +0.001 A 
ATOM     17  C   UNL     1     -10.035   1.477 -17.410  0.00  0.00    +0.010 A 
ENDBRANCH   2  12
BRANCH   7  18
ATOM     18  C   UNL     1     -16.381   6.510 -14.778  0.00  0.00    +0.155 A 
ATOM     19  C   UNL     1     -16.687   6.637 -13.434  0.00  0.00    +0.051 A 
ATOM     20  C   UNL     1     -17.753   7.567 -13.338  0.00  0.00    +0.042 A 
ATOM     21  C   UNL     1     -18.036   7.953 -14.626  0.00  0.00    +0.196 A 
ATOM     22  O   UNL     1     -17.213   7.324 -15.500  0.00  0.00    -0.461 OA
ENDBRANCH   7  18
TORSDOF 2
ENDMDL
MODEL 4
REMARK VINA RESULT:      -7.2      2.008      2.418
REMARK  Name = min_compound970.pdb
REMARK  2 active torsions:
REMARK  status: ('A' for Active; 'I' for Inactive)
REMARK    1  A    between atoms: _2  and  _17
REMARK    2  A    between atoms: _11  and  _12
REMARK                            x       y       z     vdW  Elec       q    Type
REMARK                         _______ _______ _______ _____ _____    ______ ____
ROOT
ATOM      1  C   UNL     1     -14.172   2.072 -16.228  0.00  0.00    +0.098 A 
ATOM      2  C   UNL     1     -12.931   2.434 -16.628  0.00  0.00    +0.053 A 
ATOM      3  N   UNL     1     -12.658   3.776 -16.895  0.00  0.00    -0.339 N 
ATOM      4  H   UNL     1     -11.703   4.021 -17.127  0.00  0.00    +0.167 HD
ATOM      5  C   UNL     1     -13.602   4.740 -16.791  0.00  0.00    +0.139 A 
ATOM      6  C   UNL     1     -13.617   6.091 -17.015  0.00  0.00    +0.079 A 
ATOM      7  C   UNL     1     -14.940   6.490 -16.702  0.00  0.00    +0.130 A 
ATOM      8  N   UNL     1     -15.699   5.459 -16.304  0.00  0.00    -0.159 NA
ATOM      9  N   UNL     1     -14.869   4.389 -16.374  0.00  0.00    -0.179 N 
ATOM     10  C   UNL     1     -15.254   3.081 -16.058  0.00  0.00    +0.275 A 
ATOM     11  O   UNL     1     -16.383   2.797 -15.678  0.00  0.00    -0.266 OA
ENDROOT
BRANCH   2  12
ATOM     12  C   UNL     1     -11.833   1.418 -16.802  0.00  0.00    -0.001 A 
ATOM     13  C   UNL     1     -10.549   1.779 -17.260  0.00  0.00    +0.010 A 
ATOM     14  C   UNL     1      -9.525   0.837 -17.418  0.00  0.00    +0.001 A 
ATOM     15  C   UNL     1      -9.757  -0.502 -17.135  0.00  0.00    +0.000 A 
ATOM     16  C   UNL     1     -11.011  -0.895 -16.687  0.00  0.00    +0.001 A 
ATOM     17  C   UNL     1     -12.030   0.053 -16.515  0.00  0.00    +0.010 A 
ENDBRANCH   2  12
BRANCH   7  18
ATOM     18  C   UNL     1     -15.485   7.881 -16.783  0.00  0.00    +0.155 A 
ATOM     19  C   UNL     1     -15.861   8.557 -17.931  0.00  0.00    +0.051 A 
ATOM     20  C   UNL     1     -16.316   9.838 -17.527  0.00  0.00    +0.042 A 
ATOM     21  C   UNL     1     -16.191   9.870 -16.160  0.00  0.00    +0.196 A 
ATOM     22  O   UNL     1     -15.694   8.695 -15.701  0.00  0.00    -0.461 OA
ENDBRANCH   7  18
TORSDOF 2
ENDMDL
MODEL 5
REMARK VINA RESULT:      -7.2      2.292      2.746
REMARK  Name = min_compound970.pdb
REMARK  2 active torsions:
REMARK  status: ('A' for Active; 'I' for Inactive)
REMARK    1  A    between atoms: _2  and  _17
REMARK    2  A    between atoms: _11  and  _12
REMARK                            x       y       z     vdW  Elec       q    Type
REMARK                         _______ _______ _______ _____ _____    ______ ____
ROOT
ATOM      1  C   UNL     1     -11.722   4.552 -17.314  0.00  0.00    +0.098 A 
ATOM      2  C   UNL     1     -12.414   3.591 -16.661  0.00  0.00    +0.053 A 
ATOM      3  N   UNL     1     -13.671   3.887 -16.131  0.00  0.00    -0.339 N 
ATOM      4  H   UNL     1     -14.190   3.127 -15.708  0.00  0.00    +0.167 HD
ATOM      5  C   UNL     1     -14.224   5.119 -16.228  0.00  0.00    +0.139 A 
ATOM      6  C   UNL     1     -15.393   5.678 -15.786  0.00  0.00    +0.079 A 
ATOM      7  C   UNL     1     -15.342   7.019 -16.243  0.00  0.00    +0.130 A 
ATOM      8  N   UNL     1     -14.219   7.278 -16.928  0.00  0.00    -0.159 NA
ATOM      9  N   UNL     1     -13.536   6.107 -16.901  0.00  0.00    -0.179 N 
ATOM     10  C   UNL     1     -12.280   5.922 -17.490  0.00  0.00    +0.275 A 
ATOM     11  O   UNL     1     -11.695   6.813 -18.094  0.00  0.00    -0.266 OA
ENDROOT
BRANCH   2  12
ATOM     12  C   UNL     1     -11.855   2.205 -16.480  0.00  0.00    -0.001 A 
ATOM     13  C   UNL     1     -10.587   1.982 -15.904  0.00  0.00    +0.010 A 
ATOM     14  C   UNL     1     -10.068   0.693 -15.729  0.00  0.00    +0.001 A 
ATOM     15  C   UNL     1     -10.795  -0.416 -16.139  0.00  0.00    +0.000 A 
ATOM     16  C   UNL     1     -12.045  -0.234 -16.716  0.00  0.00    +0.001 A 
ATOM     17  C   UNL     1     -12.569   1.057 -16.875  0.00  0.00    +0.010 A 
ENDBRANCH   2  12
BRANCH   7  18
ATOM     18  C   UNL     1     -16.387   8.067 -16.021  0.00  0.00    +0.155 A 
ATOM     19  C   UNL     1     -16.386   9.042 -15.040  0.00  0.00    +0.051 A 
ATOM     20  C   UNL     1     -17.566   9.807 -15.214  0.00  0.00    +0.042 A 
ATOM     21  C   UNL     1     -18.220   9.256 -16.289  0.00  0.00    +0.196 A 
ATOM     22  O   UNL     1     -17.516   8.208 -16.784  0.00  0.00    -0.461 OA
ENDBRANCH   7  18
TORSDOF 2
ENDMDL
MODEL 6
REMARK VINA RESULT:      -7.2     10.770     12.951
REMARK  Name = min_compound970.pdb
REMARK  2 active torsions:
REMARK  status: ('A' for Active; 'I' for Inactive)
REMARK    1  A    between atoms: _2  and  _17
REMARK    2  A    between atoms: _11  and  _12
REMARK                            x       y       z     vdW  Elec       q    Type
REMARK                         _______ _______ _______ _____ _____    ______ ____
ROOT
ATOM      1  C   UNL     1     -17.201   3.833  -8.155  0.00  0.00    +0.098 A 
ATOM      2  C   UNL     1     -16.403   3.237  -9.070  0.00  0.00    +0.053 A 
ATOM      3  N   UNL     1     -15.637   2.131  -8.698  0.00  0.00    -0.339 N 
ATOM      4  H   UNL     1     -15.103   1.667  -9.423  0.00  0.00    +0.167 HD
ATOM      5  C   UNL     1     -15.645   1.638  -7.438  0.00  0.00    +0.139 A 
ATOM      6  C   UNL     1     -14.988   0.614  -6.809  0.00  0.00    +0.079 A 
ATOM      7  C   UNL     1     -15.472   0.644  -5.477  0.00  0.00    +0.130 A 
ATOM      8  N   UNL     1     -16.373   1.619  -5.288  0.00  0.00    -0.159 NA
ATOM      9  N   UNL     1     -16.461   2.228  -6.497  0.00  0.00    -0.179 N 
ATOM     10  C   UNL     1     -17.288   3.327  -6.757  0.00  0.00    +0.275 A 
ATOM     11  O   UNL     1     -18.014   3.826  -5.907  0.00  0.00    -0.266 OA
ENDROOT
BRANCH   2  12
ATOM     12  C   UNL     1     -16.311   3.745 -10.484  0.00  0.00    -0.001 A 
ATOM     13  C   UNL     1     -17.096   3.203 -11.523  0.00  0.00    +0.010 A 
ATOM     14  C   UNL     1     -17.017   3.678 -12.839  0.00  0.00    +0.001 A 
ATOM     15  C   UNL     1     -16.136   4.702 -13.161  0.00  0.00    +0.000 A 
ATOM     16  C   UNL     1     -15.343   5.254 -12.164  0.00  0.00    +0.001 A 
ATOM     17  C   UNL     1     -15.436   4.788 -10.845  0.00  0.00    +0.010 A 
ENDBRANCH   2  12
BRANCH   7  18
ATOM     18  C   UNL     1     -15.065  -0.276  -4.369  0.00  0.00    +0.155 A 
ATOM     19  C   UNL     1     -14.524   0.088  -3.148  0.00  0.00    +0.051 A 
ATOM     20  C   UNL     1     -14.299  -1.109  -2.422  0.00  0.00    +0.042 A 
ATOM     21  C   UNL     1     -14.713  -2.132  -3.240  0.00  0.00    +0.196 A 
ATOM     22  O   UNL     1     -15.179  -1.640  -4.415  0.00  0.00    -0.461 OA
ENDBRANCH   7  18
TORSDOF 2
ENDMDL
MODEL 7
REMARK VINA RESULT:      -7.1      2.947      4.366
REMARK  Name = min_compound970.pdb
REMARK  2 active torsions:
REMARK  status: ('A' for Active; 'I' for Inactive)
REMARK    1  A    between atoms: _2  and  _17
REMARK    2  A    between atoms: _11  and  _12
REMARK                            x       y       z     vdW  Elec       q    Type
REMARK                         _______ _______ _______ _____ _____    ______ ____
ROOT
ATOM      1  C   UNL     1     -13.454   2.511 -17.552  0.00  0.00    +0.098 A 
ATOM      2  C   UNL     1     -12.676   1.637 -18.231  0.00  0.00    +0.053 A 
ATOM      3  N   UNL     1     -12.845   1.491 -19.608  0.00  0.00    -0.339 N 
ATOM      4  H   UNL     1     -12.201   0.878 -20.095  0.00  0.00    +0.167 HD
ATOM      5  C   UNL     1     -13.783   2.180 -20.298  0.00  0.00    +0.139 A 
ATOM      6  C   UNL     1     -14.175   2.208 -21.610  0.00  0.00    +0.079 A 
ATOM      7  C   UNL     1     -15.217   3.169 -21.650  0.00  0.00    +0.130 A 
ATOM      8  N   UNL     1     -15.455   3.707 -20.446  0.00  0.00    -0.159 NA
ATOM      9  N   UNL     1     -14.576   3.084 -19.624  0.00  0.00    -0.179 N 
ATOM     10  C   UNL     1     -14.484   3.331 -18.249  0.00  0.00    +0.275 A 
ATOM     11  O   UNL     1     -15.193   4.148 -17.674  0.00  0.00    -0.266 OA
ENDROOT
BRANCH   2  12
ATOM     12  C   UNL     1     -11.633   0.806 -17.532  0.00  0.00    -0.001 A 
ATOM     13  C   UNL     1     -10.253   1.039 -17.707  0.00  0.00    +0.010 A 
ATOM     14  C   UNL     1      -9.281   0.271 -17.053  0.00  0.00    +0.001 A 
ATOM     15  C   UNL     1      -9.659  -0.768 -16.214  0.00  0.00    +0.000 A 
ATOM     16  C   UNL     1     -11.009  -1.030 -16.023  0.00  0.00    +0.001 A 
ATOM     17  C   UNL     1     -11.980  -0.249 -16.665  0.00  0.00    +0.010 A 
ENDBRANCH   2  12
BRANCH   7  18
ATOM     18  C   UNL     1     -15.994   3.577 -22.862  0.00  0.00    +0.155 A 
ATOM     19  C   UNL     1     -16.246   4.870 -23.287  0.00  0.00    +0.051 A 
ATOM     20  C   UNL     1     -17.016   4.773 -24.474  0.00  0.00    +0.042 A 
ATOM     21  C   UNL     1     -17.190   3.430 -24.704  0.00  0.00    +0.196 A 
ATOM     22  O   UNL     1     -16.576   2.701 -23.739  0.00  0.00    -0.461 OA
ENDBRANCH   7  18
TORSDOF 2
ENDMDL
MODEL 8
REMARK VINA RESULT:      -6.9      2.518      7.963
REMARK  Name = min_compound970.pdb
REMARK  2 active torsions:
REMARK  status: ('A' for Active; 'I' for Inactive)
REMARK    1  A    between atoms: _2  and  _17
REMARK    2  A    between atoms: _11  and  _12
REMARK                            x       y       z     vdW  Elec       q    Type
REMARK                         _______ _______ _______ _____ _____    ______ ____
ROOT
ATOM      1  C   UNL     1     -13.707   6.990 -17.399  0.00  0.00    +0.098 A 
ATOM      2  C   UNL     1     -14.660   6.672 -16.493  0.00  0.00    +0.053 A 
ATOM      3  N   UNL     1     -14.626   5.425 -15.868  0.00  0.00    -0.339 N 
ATOM      4  H   UNL     1     -15.315   5.246 -15.147  0.00  0.00    +0.167 HD
ATOM      5  C   UNL     1     -13.680   4.500 -16.151  0.00  0.00    +0.139 A 
ATOM      6  C   UNL     1     -13.434   3.223 -15.722  0.00  0.00    +0.079 A 
ATOM      7  C   UNL     1     -12.267   2.830 -16.424  0.00  0.00    +0.130 A 
ATOM      8  N   UNL     1     -11.812   3.798 -17.232  0.00  0.00    -0.159 NA
ATOM      9  N   UNL     1     -12.695   4.813 -17.063  0.00  0.00    -0.179 N 
ATOM     10  C   UNL     1     -12.613   6.037 -17.737  0.00  0.00    +0.275 A 
ATOM     11  O   UNL     1     -11.721   6.296 -18.535  0.00  0.00    -0.266 OA
ENDROOT
BRANCH   2  12
ATOM     12  C   UNL     1     -15.768   7.631 -16.148  0.00  0.00    -0.001 A 
ATOM     13  C   UNL     1     -17.083   7.454 -16.625  0.00  0.00    +0.010 A 
ATOM     14  C   UNL     1     -18.117   8.341 -16.300  0.00  0.00    +0.001 A 
ATOM     15  C   UNL     1     -17.865   9.446 -15.499  0.00  0.00    +0.000 A 
ATOM     16  C   UNL     1     -16.580   9.655 -15.016  0.00  0.00    +0.001 A 
ATOM     17  C   UNL     1     -15.550   8.757 -15.329  0.00  0.00    +0.010 A 
ENDBRANCH   2  12
BRANCH   7  18
ATOM     18  C   UNL     1     -11.577   1.506 -16.316  0.00  0.00    +0.155 A 
ATOM     19  C   UNL     1     -12.032   0.293 -16.801  0.00  0.00    +0.051 A 
ATOM     20  C   UNL     1     -11.054  -0.679 -16.471  0.00  0.00    +0.042 A 
ATOM     21  C   UNL     1     -10.060  -0.005 -15.804  0.00  0.00    +0.196 A 
ATOM     22  O   UNL     1     -10.364   1.313 -15.708  0.00  0.00    -0.461 OA
ENDBRANCH   7  18
TORSDOF 2
ENDMDL
MODEL 9
REMARK VINA RESULT:      -6.7      2.023      2.493
REMARK  Name = min_compound970.pdb
REMARK  2 active torsions:
REMARK  status: ('A' for Active; 'I' for Inactive)
REMARK    1  A    between atoms: _2  and  _17
REMARK    2  A    between atoms: _11  and  _12
REMARK                            x       y       z     vdW  Elec       q    Type
REMARK                         _______ _______ _______ _____ _____    ______ ____
ROOT
ATOM      1  C   UNL     1     -11.377   3.919 -17.343  0.00  0.00    +0.098 A 
ATOM      2  C   UNL     1     -11.924   2.724 -17.662  0.00  0.00    +0.053 A 
ATOM      3  N   UNL     1     -13.141   2.684 -18.344  0.00  0.00    -0.339 N 
ATOM      4  H   UNL     1     -13.489   1.775 -18.626  0.00  0.00    +0.167 HD
ATOM      5  C   UNL     1     -13.816   3.807 -18.683  0.00  0.00    +0.139 A 
ATOM      6  C   UNL     1     -15.009   4.052 -19.309  0.00  0.00    +0.079 A 
ATOM      7  C   UNL     1     -15.107   5.465 -19.348  0.00  0.00    +0.130 A 
ATOM      8  N   UNL     1     -14.045   6.063 -18.789  0.00  0.00    -0.159 NA
ATOM      9  N   UNL     1     -13.266   5.033 -18.375  0.00  0.00    -0.179 N 
ATOM     10  C   UNL     1     -12.044   5.198 -17.713  0.00  0.00    +0.275 A 
ATOM     11  O   UNL     1     -11.570   6.299 -17.462  0.00  0.00    -0.266 OA
ENDROOT
BRANCH   2  12
ATOM     12  C   UNL     1     -11.255   1.427 -17.289  0.00  0.00    -0.001 A 
ATOM     13  C   UNL     1     -11.970   0.359 -16.709  0.00  0.00    +0.010 A 
ATOM     14  C   UNL     1     -11.350  -0.850 -16.367  0.00  0.00    +0.001 A 
ATOM     15  C   UNL     1      -9.990  -1.024 -16.581  0.00  0.00    +0.000 A 
ATOM     16  C   UNL     1      -9.254   0.008 -17.146  0.00  0.00    +0.001 A 
ATOM     17  C   UNL     1      -9.879   1.211 -17.502  0.00  0.00    +0.010 A 
ENDBRANCH   2  12
BRANCH   7  18
ATOM     18  C   UNL     1     -16.237   6.255 -19.931  0.00  0.00    +0.155 A 
ATOM     19  C   UNL     1     -17.479   5.773 -20.305  0.00  0.00    +0.051 A 
ATOM     20  C   UNL     1     -18.219   6.875 -20.802  0.00  0.00    +0.042 A 
ATOM     21  C   UNL     1     -17.388   7.964 -20.705  0.00  0.00    +0.196 A 
ATOM     22  O   UNL     1     -16.192   7.602 -20.179  0.00  0.00    -0.461 OA
ENDBRANCH   7  18
TORSDOF 2
ENDMDL
