MODEL 1
REMARK VINA RESULT:      -6.4      0.000      0.000
REMARK  Name = min_compound941.pdb
REMARK  4 active torsions:
REMARK  status: ('A' for Active; 'I' for Inactive)
REMARK    1  A    between atoms: _2  and  _14
REMARK    2  A    between atoms: _3  and  _15
REMARK    3  A    between atoms: _7  and  _16
REMARK    4  A    between atoms: _9  and  _11
REMARK                            x       y       z     vdW  Elec       q    Type
REMARK                         _______ _______ _______ _____ _____    ______ ____
ROOT
ATOM      1  C   UNL     1     -10.669   1.691 -17.172  0.00  0.00    +0.166 C 
ATOM      2  C   UNL     1     -10.963   1.594 -15.665  0.00  0.00    +0.177 C 
ATOM      3  C   UNL     1     -11.374   3.030 -15.324  0.00  0.00    +0.195 C 
ATOM      4  C   UNL     1     -12.220   3.327 -16.577  0.00  0.00    +0.255 C 
ATOM      5  O   UNL     1     -11.381   2.853 -17.658  0.00  0.00    -0.347 OA
ENDROOT
BRANCH   4   6
ATOM      6  N   UNL     1     -12.687   4.667 -16.882  0.00  0.00    -0.270 N 
ATOM      7  C   UNL     1     -11.955   5.586 -17.599  0.00  0.00    +0.096 A 
ATOM      8  C   UNL     1     -12.436   6.799 -17.869  0.00  0.00    +0.061 A 
ATOM      9  C   UNL     1     -13.790   7.083 -17.368  0.00  0.00    +0.123 A 
ATOM     10  N   UNL     1     -14.366   8.297 -17.620  0.00  0.00    -0.343 N 
ATOM     11  H   UNL     1     -15.193   8.453 -17.050  0.00  0.00    +0.144 HD
ATOM     12  H   UNL     1     -13.753   9.100 -17.665  0.00  0.00    +0.144 HD
ATOM     13  N   UNL     1     -14.483   6.235 -16.677  0.00  0.00    -0.178 NA
ATOM     14  C   UNL     1     -13.962   4.994 -16.390  0.00  0.00    +0.352 A 
ATOM     15  O   UNL     1     -14.598   4.205 -15.693  0.00  0.00    -0.244 OA
ENDBRANCH   4   6
BRANCH   1  17
ATOM     16 CL   UNL     1     -10.007  -0.909 -17.725  0.00  0.00    -0.123 Cl
ATOM     17  C   UNL     1     -11.116   0.462 -17.960  0.00  0.00    +0.143 C 
ENDBRANCH   1  17
BRANCH   2  18
ATOM     18  O   UNL     1      -9.846   1.143 -14.912  0.00  0.00    -0.386 OA
ATOM     19  H   UNL     1      -9.059   1.627 -15.222  0.00  0.00    +0.210 HD
ENDBRANCH   2  18
BRANCH   3  20
ATOM     20  O   UNL     1     -10.210   3.863 -15.202  0.00  0.00    -0.385 OA
ATOM     21  H   UNL     1      -9.498   3.464 -15.734  0.00  0.00    +0.210 HD
ENDBRANCH   3  20
TORSDOF 4
ENDMDL
MODEL 2
REMARK VINA RESULT:      -5.6      3.211      5.854
REMARK  Name = min_compound941.pdb
REMARK  4 active torsions:
REMARK  status: ('A' for Active; 'I' for Inactive)
REMARK    1  A    between atoms: _2  and  _14
REMARK    2  A    between atoms: _3  and  _15
REMARK    3  A    between atoms: _7  and  _16
REMARK    4  A    between atoms: _9  and  _11
REMARK                            x       y       z     vdW  Elec       q    Type
REMARK                         _______ _______ _______ _____ _____    ______ ____
ROOT
ATOM      1  C   UNL     1     -14.239   4.512 -18.014  0.00  0.00    +0.166 C 
ATOM      2  C   UNL     1     -14.589   4.848 -16.555  0.00  0.00    +0.177 C 
ATOM      3  C   UNL     1     -14.109   3.597 -15.812  0.00  0.00    +0.195 C 
ATOM      4  C   UNL     1     -12.798   3.363 -16.586  0.00  0.00    +0.255 C 
ATOM      5  O   UNL     1     -13.206   3.501 -17.969  0.00  0.00    -0.347 OA
ENDROOT
BRANCH   4   6
ATOM      6  N   UNL     1     -12.026   2.143 -16.431  0.00  0.00    -0.270 N 
ATOM      7  C   UNL     1     -12.453   0.909 -16.865  0.00  0.00    +0.096 A 
ATOM      8  C   UNL     1     -11.699  -0.179 -16.715  0.00  0.00    +0.061 A 
ATOM      9  C   UNL     1     -10.390   0.025 -16.075  0.00  0.00    +0.123 A 
ATOM     10  N   UNL     1      -9.546  -1.036 -15.901  0.00  0.00    -0.343 N 
ATOM     11  H   UNL     1      -8.784  -0.818 -15.265  0.00  0.00    +0.144 HD
ATOM     12  H   UNL     1      -9.967  -1.939 -15.727  0.00  0.00    +0.144 HD
ATOM     13  N   UNL     1      -9.984   1.177 -15.644  0.00  0.00    -0.178 NA
ATOM     14  C   UNL     1     -10.784   2.287 -15.789  0.00  0.00    +0.352 A 
ATOM     15  O   UNL     1     -10.420   3.372 -15.339  0.00  0.00    -0.244 OA
ENDBRANCH   4   6
BRANCH   1  17
ATOM     16 CL   UNL     1     -12.858   6.866 -17.777  0.00  0.00    -0.123 Cl
ATOM     17  C   UNL     1     -13.733   5.712 -18.811  0.00  0.00    +0.143 C 
ENDBRANCH   1  17
BRANCH   2  18
ATOM     18  O   UNL     1     -15.972   5.109 -16.364  0.00  0.00    -0.386 OA
ATOM     19  H   UNL     1     -16.320   4.446 -15.739  0.00  0.00    +0.210 HD
ENDBRANCH   2  18
BRANCH   3  20
ATOM     20  O   UNL     1     -15.065   2.535 -15.961  0.00  0.00    -0.385 OA
ATOM     21  H   UNL     1     -15.934   2.936 -16.141  0.00  0.00    +0.210 HD
ENDBRANCH   3  20
TORSDOF 4
ENDMDL
MODEL 3
REMARK VINA RESULT:      -5.5      1.801      2.832
REMARK  Name = min_compound941.pdb
REMARK  4 active torsions:
REMARK  status: ('A' for Active; 'I' for Inactive)
REMARK    1  A    between atoms: _2  and  _14
REMARK    2  A    between atoms: _3  and  _15
REMARK    3  A    between atoms: _7  and  _16
REMARK    4  A    between atoms: _9  and  _11
REMARK                            x       y       z     vdW  Elec       q    Type
REMARK                         _______ _______ _______ _____ _____    ______ ____
ROOT
ATOM      1  C   UNL     1     -12.027   2.216 -16.256  0.00  0.00    +0.166 C 
ATOM      2  C   UNL     1     -11.820   2.107 -17.776  0.00  0.00    +0.177 C 
ATOM      3  C   UNL     1     -12.756   3.197 -18.308  0.00  0.00    +0.195 C 
ATOM      4  C   UNL     1     -12.469   4.279 -17.250  0.00  0.00    +0.255 C 
ATOM      5  O   UNL     1     -12.542   3.544 -16.003  0.00  0.00    -0.347 OA
ENDROOT
BRANCH   4   6
ATOM      6  N   UNL     1     -13.276   5.481 -17.148  0.00  0.00    -0.270 N 
ATOM      7  C   UNL     1     -14.469   5.545 -16.466  0.00  0.00    +0.096 A 
ATOM      8  C   UNL     1     -15.164   6.678 -16.386  0.00  0.00    +0.061 A 
ATOM      9  C   UNL     1     -14.573   7.847 -17.056  0.00  0.00    +0.123 A 
ATOM     10  N   UNL     1     -15.212   9.054 -17.005  0.00  0.00    -0.343 N 
ATOM     11  H   UNL     1     -14.830   9.718 -17.673  0.00  0.00    +0.144 HD
ATOM     12  H   UNL     1     -16.224   9.043 -16.986  0.00  0.00    +0.144 HD
ATOM     13  N   UNL     1     -13.460   7.798 -17.717  0.00  0.00    -0.178 NA
ATOM     14  C   UNL     1     -12.766   6.614 -17.806  0.00  0.00    +0.352 A 
ATOM     15  O   UNL     1     -11.734   6.553 -18.473  0.00  0.00    -0.244 OA
ENDBRANCH   4   6
BRANCH   1  17
ATOM     16 CL   UNL     1     -10.119   0.356 -15.621  0.00  0.00    -0.123 Cl
ATOM     17  C   UNL     1     -10.746   2.012 -15.451  0.00  0.00    +0.143 C 
ENDBRANCH   1  17
BRANCH   2  18
ATOM     18  O   UNL     1     -12.127   0.817 -18.285  0.00  0.00    -0.386 OA
ATOM     19  H   UNL     1     -12.564   0.310 -17.576  0.00  0.00    +0.210 HD
ENDBRANCH   2  18
BRANCH   3  20
ATOM     20  O   UNL     1     -14.115   2.730 -18.302  0.00  0.00    -0.385 OA
ATOM     21  H   UNL     1     -14.342   2.478 -17.389  0.00  0.00    +0.210 HD
ENDBRANCH   3  20
TORSDOF 4
ENDMDL
MODEL 4
REMARK VINA RESULT:      -5.5     13.805     15.302
REMARK  Name = min_compound941.pdb
REMARK  4 active torsions:
REMARK  status: ('A' for Active; 'I' for Inactive)
REMARK    1  A    between atoms: _2  and  _14
REMARK    2  A    between atoms: _3  and  _15
REMARK    3  A    between atoms: _7  and  _16
REMARK    4  A    between atoms: _9  and  _11
REMARK                            x       y       z     vdW  Elec       q    Type
REMARK                         _______ _______ _______ _____ _____    ______ ____
ROOT
ATOM      1  C   UNL     1     -13.782   0.660  -4.565  0.00  0.00    +0.166 C 
ATOM      2  C   UNL     1     -14.854   0.592  -5.666  0.00  0.00    +0.177 C 
ATOM      3  C   UNL     1     -15.387  -0.836  -5.509  0.00  0.00    +0.195 C 
ATOM      4  C   UNL     1     -15.408  -0.902  -3.970  0.00  0.00    +0.255 C 
ATOM      5  O   UNL     1     -14.113  -0.368  -3.602  0.00  0.00    -0.347 OA
ENDROOT
BRANCH   4   6
ATOM      6  N   UNL     1     -15.634  -2.149  -3.262  0.00  0.00    -0.270 N 
ATOM      7  C   UNL     1     -14.633  -3.039  -2.945  0.00  0.00    +0.096 A 
ATOM      8  C   UNL     1     -14.889  -4.163  -2.277  0.00  0.00    +0.061 A 
ATOM      9  C   UNL     1     -16.293  -4.381  -1.894  0.00  0.00    +0.123 A 
ATOM     10  N   UNL     1     -16.638  -5.500  -1.189  0.00  0.00    -0.343 N 
ATOM     11  H   UNL     1     -17.643  -5.648  -1.175  0.00  0.00    +0.144 HD
ATOM     12  H   UNL     1     -16.112  -6.345  -1.373  0.00  0.00    +0.144 HD
ATOM     13  N   UNL     1     -17.248  -3.562  -2.203  0.00  0.00    -0.178 NA
ATOM     14  C   UNL     1     -16.968  -2.416  -2.910  0.00  0.00    +0.352 A 
ATOM     15  O   UNL     1     -17.879  -1.661  -3.246  0.00  0.00    -0.244 OA
ENDBRANCH   4   6
BRANCH   1  17
ATOM     16 CL   UNL     1     -15.289   2.852  -3.908  0.00  0.00    -0.123 Cl
ATOM     17  C   UNL     1     -13.721   2.011  -3.856  0.00  0.00    +0.143 C 
ENDBRANCH   1  17
BRANCH   2  18
ATOM     18  O   UNL     1     -14.332   0.849  -6.962  0.00  0.00    -0.386 OA
ATOM     19  H   UNL     1     -14.623   0.129  -7.551  0.00  0.00    +0.210 HD
ENDBRANCH   2  18
BRANCH   3  20
ATOM     20  O   UNL     1     -14.482  -1.773  -6.115  0.00  0.00    -0.385 OA
ATOM     21  H   UNL     1     -14.895  -2.655  -6.081  0.00  0.00    +0.210 HD
ENDBRANCH   3  20
TORSDOF 4
ENDMDL
MODEL 5
REMARK VINA RESULT:      -5.5      3.281      5.741
REMARK  Name = min_compound941.pdb
REMARK  4 active torsions:
REMARK  status: ('A' for Active; 'I' for Inactive)
REMARK    1  A    between atoms: _2  and  _14
REMARK    2  A    between atoms: _3  and  _15
REMARK    3  A    between atoms: _7  and  _16
REMARK    4  A    between atoms: _9  and  _11
REMARK                            x       y       z     vdW  Elec       q    Type
REMARK                         _______ _______ _______ _____ _____    ______ ____
ROOT
ATOM      1  C   UNL     1     -14.493   4.713 -15.720  0.00  0.00    +0.166 C 
ATOM      2  C   UNL     1     -14.286   5.202 -17.164  0.00  0.00    +0.177 C 
ATOM      3  C   UNL     1     -12.947   4.556 -17.534  0.00  0.00    +0.195 C 
ATOM      4  C   UNL     1     -13.170   3.181 -16.876  0.00  0.00    +0.255 C 
ATOM      5  O   UNL     1     -13.684   3.525 -15.566  0.00  0.00    -0.347 OA
ENDROOT
BRANCH   4   6
ATOM      6  N   UNL     1     -12.092   2.219 -16.733  0.00  0.00    -0.270 N 
ATOM      7  C   UNL     1     -11.280   2.141 -15.625  0.00  0.00    +0.096 A 
ATOM      8  C   UNL     1     -10.315   1.228 -15.533  0.00  0.00    +0.061 A 
ATOM      9  C   UNL     1     -10.183   0.311 -16.677  0.00  0.00    +0.123 A 
ATOM     10  N   UNL     1      -9.231  -0.669 -16.655  0.00  0.00    -0.343 N 
ATOM     11  H   UNL     1      -9.092  -1.089 -17.570  0.00  0.00    +0.144 HD
ATOM     12  H   UNL     1      -8.364  -0.463 -16.174  0.00  0.00    +0.144 HD
ATOM     13  N   UNL     1     -10.927   0.385 -17.734  0.00  0.00    -0.178 NA
ATOM     14  C   UNL     1     -11.906   1.348 -17.820  0.00  0.00    +0.352 A 
ATOM     15  O   UNL     1     -12.581   1.451 -18.843  0.00  0.00    -0.244 OA
ENDBRANCH   4   6
BRANCH   1  17
ATOM     16 CL   UNL     1     -16.112   2.724 -14.759  0.00  0.00    -0.123 Cl
ATOM     17  C   UNL     1     -15.947   4.378 -15.393  0.00  0.00    +0.143 C 
ENDBRANCH   1  17
BRANCH   2  18
ATOM     18  O   UNL     1     -14.267   6.618 -17.271  0.00  0.00    -0.386 OA
ATOM     19  H   UNL     1     -14.947   6.880 -17.917  0.00  0.00    +0.210 HD
ENDBRANCH   2  18
BRANCH   3  20
ATOM     20  O   UNL     1     -11.862   5.302 -16.960  0.00  0.00    -0.385 OA
ATOM     21  H   UNL     1     -11.155   4.673 -16.728  0.00  0.00    +0.210 HD
ENDBRANCH   3  20
TORSDOF 4
ENDMDL
MODEL 6
REMARK VINA RESULT:      -5.5     10.573     11.603
REMARK  Name = min_compound941.pdb
REMARK  4 active torsions:
REMARK  status: ('A' for Active; 'I' for Inactive)
REMARK    1  A    between atoms: _2  and  _14
REMARK    2  A    between atoms: _3  and  _15
REMARK    3  A    between atoms: _7  and  _16
REMARK    4  A    between atoms: _9  and  _11
REMARK                            x       y       z     vdW  Elec       q    Type
REMARK                         _______ _______ _______ _____ _____    ______ ____
ROOT
ATOM      1  C   UNL     1     -15.830  -0.360  -4.710  0.00  0.00    +0.166 C 
ATOM      2  C   UNL     1     -14.812  -0.785  -5.782  0.00  0.00    +0.177 C 
ATOM      3  C   UNL     1     -15.580  -0.517  -7.080  0.00  0.00    +0.195 C 
ATOM      4  C   UNL     1     -16.242   0.815  -6.681  0.00  0.00    +0.255 C 
ATOM      5  O   UNL     1     -16.760   0.539  -5.357  0.00  0.00    -0.347 OA
ENDROOT
BRANCH   4   6
ATOM      6  N   UNL     1     -17.284   1.423  -7.489  0.00  0.00    -0.270 N 
ATOM      7  C   UNL     1     -18.626   1.172  -7.319  0.00  0.00    +0.096 A 
ATOM      8  C   UNL     1     -19.545   1.769  -8.075  0.00  0.00    +0.061 A 
ATOM      9  C   UNL     1     -19.039   2.713  -9.084  0.00  0.00    +0.123 A 
ATOM     10  N   UNL     1     -19.917   3.384  -9.888  0.00  0.00    -0.343 N 
ATOM     11  H   UNL     1     -19.452   3.829 -10.674  0.00  0.00    +0.144 HD
ATOM     12  H   UNL     1     -20.769   2.902 -10.147  0.00  0.00    +0.144 HD
ATOM     13  N   UNL     1     -17.778   2.944  -9.268  0.00  0.00    -0.178 NA
ATOM     14  C   UNL     1     -16.841   2.303  -8.492  0.00  0.00    +0.352 A 
ATOM     15  O   UNL     1     -15.642   2.485  -8.696  0.00  0.00    -0.244 OA
ENDBRANCH   4   6
BRANCH   1  17
ATOM     16 CL   UNL     1     -13.724   1.231  -3.977  0.00  0.00    -0.123 Cl
ATOM     17  C   UNL     1     -15.197   0.347  -3.514  0.00  0.00    +0.143 C 
ENDBRANCH   1  17
BRANCH   2  18
ATOM     18  O   UNL     1     -14.402  -2.138  -5.649  0.00  0.00    -0.386 OA
ATOM     19  H   UNL     1     -14.567  -2.587  -6.499  0.00  0.00    +0.210 HD
ENDBRANCH   2  18
BRANCH   3  20
ATOM     20  O   UNL     1     -16.518  -1.576  -7.329  0.00  0.00    -0.385 OA
ATOM     21  H   UNL     1     -16.881  -1.864  -6.472  0.00  0.00    +0.210 HD
ENDBRANCH   3  20
TORSDOF 4
ENDMDL
MODEL 7
REMARK VINA RESULT:      -5.2      3.002      3.297
REMARK  Name = min_compound941.pdb
REMARK  4 active torsions:
REMARK  status: ('A' for Active; 'I' for Inactive)
REMARK    1  A    between atoms: _2  and  _14
REMARK    2  A    between atoms: _3  and  _15
REMARK    3  A    between atoms: _7  and  _16
REMARK    4  A    between atoms: _9  and  _11
REMARK                            x       y       z     vdW  Elec       q    Type
REMARK                         _______ _______ _______ _____ _____    ______ ____
ROOT
ATOM      1  C   UNL     1     -11.044   0.949 -17.057  0.00  0.00    +0.166 C 
ATOM      2  C   UNL     1     -11.426   2.001 -16.002  0.00  0.00    +0.177 C 
ATOM      3  C   UNL     1     -12.190   3.033 -16.837  0.00  0.00    +0.195 C 
ATOM      4  C   UNL     1     -12.979   2.060 -17.734  0.00  0.00    +0.255 C 
ATOM      5  O   UNL     1     -11.968   1.113 -18.157  0.00  0.00    -0.347 OA
ENDROOT
BRANCH   4   6
ATOM      6  N   UNL     1     -13.723   2.521 -18.892  0.00  0.00    -0.270 N 
ATOM      7  C   UNL     1     -13.382   2.214 -20.190  0.00  0.00    +0.096 A 
ATOM      8  C   UNL     1     -14.109   2.647 -21.219  0.00  0.00    +0.061 A 
ATOM      9  C   UNL     1     -15.292   3.453 -20.881  0.00  0.00    +0.123 A 
ATOM     10  N   UNL     1     -16.103   3.920 -21.878  0.00  0.00    -0.343 N 
ATOM     11  H   UNL     1     -16.747   4.631 -21.545  0.00  0.00    +0.144 HD
ATOM     12  H   UNL     1     -15.665   4.156 -22.759  0.00  0.00    +0.144 HD
ATOM     13  N   UNL     1     -15.614   3.766 -19.666  0.00  0.00    -0.178 NA
ATOM     14  C   UNL     1     -14.841   3.327 -18.617  0.00  0.00    +0.352 A 
ATOM     15  O   UNL     1     -15.117   3.662 -17.466  0.00  0.00    -0.244 OA
ENDBRANCH   4   6
BRANCH   1  17
ATOM     16 CL   UNL     1      -9.591  -1.008 -15.806  0.00  0.00    -0.123 Cl
ATOM     17  C   UNL     1     -11.124  -0.486 -16.543  0.00  0.00    +0.143 C 
ENDBRANCH   1  17
BRANCH   2  18
ATOM     18  O   UNL     1     -10.299   2.552 -15.336  0.00  0.00    -0.386 OA
ATOM     19  H   UNL     1      -9.771   1.815 -14.978  0.00  0.00    +0.210 HD
ENDBRANCH   2  18
BRANCH   3  20
ATOM     20  O   UNL     1     -11.269   3.866 -17.560  0.00  0.00    -0.385 OA
ATOM     21  H   UNL     1     -11.430   4.790 -17.298  0.00  0.00    +0.210 HD
ENDBRANCH   3  20
TORSDOF 4
ENDMDL
MODEL 8
REMARK VINA RESULT:      -5.0      9.914     11.659
REMARK  Name = min_compound941.pdb
REMARK  4 active torsions:
REMARK  status: ('A' for Active; 'I' for Inactive)
REMARK    1  A    between atoms: _2  and  _14
REMARK    2  A    between atoms: _3  and  _15
REMARK    3  A    between atoms: _7  and  _16
REMARK    4  A    between atoms: _9  and  _11
REMARK                            x       y       z     vdW  Elec       q    Type
REMARK                         _______ _______ _______ _____ _____    ______ ____
ROOT
ATOM      1  C   UNL     1     -17.103   3.662  -9.643  0.00  0.00    +0.166 C 
ATOM      2  C   UNL     1     -18.312   3.929  -8.731  0.00  0.00    +0.177 C 
ATOM      3  C   UNL     1     -18.357   2.659  -7.875  0.00  0.00    +0.195 C 
ATOM      4  C   UNL     1     -16.844   2.486  -7.647  0.00  0.00    +0.255 C 
ATOM      5  O   UNL     1     -16.290   2.672  -8.972  0.00  0.00    -0.347 OA
ENDROOT
BRANCH   4   6
ATOM      6  N   UNL     1     -16.293   1.277  -7.060  0.00  0.00    -0.270 N 
ATOM      7  C   UNL     1     -16.187   0.082  -7.733  0.00  0.00    +0.096 A 
ATOM      8  C   UNL     1     -15.657  -0.995  -7.156  0.00  0.00    +0.061 A 
ATOM      9  C   UNL     1     -15.186  -0.821  -5.773  0.00  0.00    +0.123 A 
ATOM     10  N   UNL     1     -14.611  -1.872  -5.114  0.00  0.00    -0.343 N 
ATOM     11  H   UNL     1     -14.528  -1.699  -4.116  0.00  0.00    +0.144 HD
ATOM     12  H   UNL     1     -14.952  -2.799  -5.333  0.00  0.00    +0.144 HD
ATOM     13  N   UNL     1     -15.297   0.292  -5.121  0.00  0.00    -0.178 NA
ATOM     14  C   UNL     1     -15.865   1.389  -5.726  0.00  0.00    +0.352 A 
ATOM     15  O   UNL     1     -16.015   2.433  -5.094  0.00  0.00    -0.244 OA
ENDBRANCH   4   6
BRANCH   1  17
ATOM     16 CL   UNL     1     -14.986   4.585 -11.117  0.00  0.00    -0.123 Cl
ATOM     17  C   UNL     1     -16.259   4.905  -9.915  0.00  0.00    +0.143 C 
ENDBRANCH   1  17
BRANCH   2  18
ATOM     18  O   UNL     1     -19.513   4.152  -9.455  0.00  0.00    -0.386 OA
ATOM     19  H   UNL     1     -19.594   5.110  -9.616  0.00  0.00    +0.210 HD
ENDBRANCH   2  18
BRANCH   3  20
ATOM     20  O   UNL     1     -18.956   1.583  -8.616  0.00  0.00    -0.385 OA
ATOM     21  H   UNL     1     -19.706   1.241  -8.097  0.00  0.00    +0.210 HD
ENDBRANCH   3  20
TORSDOF 4
ENDMDL
MODEL 9
REMARK VINA RESULT:      -4.9      9.999     11.705
REMARK  Name = min_compound941.pdb
REMARK  4 active torsions:
REMARK  status: ('A' for Active; 'I' for Inactive)
REMARK    1  A    between atoms: _2  and  _14
REMARK    2  A    between atoms: _3  and  _15
REMARK    3  A    between atoms: _7  and  _16
REMARK    4  A    between atoms: _9  and  _11
REMARK                            x       y       z     vdW  Elec       q    Type
REMARK                         _______ _______ _______ _____ _____    ______ ____
ROOT
ATOM      1  C   UNL     1     -17.587   4.618  -8.146  0.00  0.00    +0.166 C 
ATOM      2  C   UNL     1     -17.773   4.081  -9.576  0.00  0.00    +0.177 C 
ATOM      3  C   UNL     1     -16.839   2.866  -9.588  0.00  0.00    +0.195 C 
ATOM      4  C   UNL     1     -17.149   2.328  -8.178  0.00  0.00    +0.255 C 
ATOM      5  O   UNL     1     -17.086   3.517  -7.353  0.00  0.00    -0.347 OA
ENDROOT
BRANCH   4   6
ATOM      6  N   UNL     1     -16.353   1.278  -7.569  0.00  0.00    -0.270 N 
ATOM      7  C   UNL     1     -15.054   1.449  -7.149  0.00  0.00    +0.096 A 
ATOM      8  C   UNL     1     -14.372   0.458  -6.579  0.00  0.00    +0.061 A 
ATOM      9  C   UNL     1     -15.093  -0.815  -6.418  0.00  0.00    +0.123 A 
ATOM     10  N   UNL     1     -14.472  -1.877  -5.824  0.00  0.00    -0.343 N 
ATOM     11  H   UNL     1     -14.981  -2.745  -5.965  0.00  0.00    +0.144 HD
ATOM     12  H   UNL     1     -13.475  -1.970  -5.967  0.00  0.00    +0.144 HD
ATOM     13  N   UNL     1     -16.309  -0.996  -6.826  0.00  0.00    -0.178 NA
ATOM     14  C   UNL     1     -16.992   0.033  -7.431  0.00  0.00    +0.352 A 
ATOM     15  O   UNL     1     -18.129  -0.151  -7.862  0.00  0.00    -0.244 OA
ENDBRANCH   4   6
BRANCH   1  17
ATOM     16 CL   UNL     1     -18.547   6.236  -6.155  0.00  0.00    -0.123 Cl
ATOM     17  C   UNL     1     -18.877   5.143  -7.520  0.00  0.00    +0.143 C 
ENDBRANCH   1  17
BRANCH   2  18
ATOM     18  O   UNL     1     -17.449   5.039 -10.573  0.00  0.00    -0.386 OA
ATOM     19  H   UNL     1     -16.928   5.746 -10.152  0.00  0.00    +0.210 HD
ENDBRANCH   2  18
BRANCH   3  20
ATOM     20  O   UNL     1     -15.477   3.290  -9.757  0.00  0.00    -0.385 OA
ATOM     21  H   UNL     1     -15.448   3.918 -10.501  0.00  0.00    +0.210 HD
ENDBRANCH   3  20
TORSDOF 4
ENDMDL
