MODEL 1
REMARK VINA RESULT:      -5.5      0.000      0.000
REMARK  Name = min_compound96.pdb
REMARK  7 active torsions:
REMARK  status: ('A' for Active; 'I' for Inactive)
REMARK    1  A    between atoms: _2  and  _5
REMARK    2  A    between atoms: _3  and  _8
REMARK    3  A    between atoms: _5  and  _7
REMARK    4  A    between atoms: _10  and  _11
REMARK    5  A    between atoms: _11  and  _12
REMARK    6  A    between atoms: _12  and  _13
REMARK    7  A    between atoms: _12  and  _14
REMARK                            x       y       z     vdW  Elec       q    Type
REMARK                         _______ _______ _______ _____ _____    ______ ____
ROOT
ATOM      1  C   UNL     1     -12.571   1.325 -17.110  0.00  0.00    +0.237 C 
ATOM      2  N   UNL     1     -12.582   2.155 -16.021  0.00  0.00    -0.312 N 
ATOM      3  H   UNL     1     -12.364   1.790 -15.103  0.00  0.00    +0.149 HD
ATOM      4  O   UNL     1     -12.710   1.687 -18.272  0.00  0.00    -0.271 OA
ENDROOT
BRANCH   1   6
ATOM      5  C   UNL     1     -11.152  -0.580 -16.327  0.00  0.00    +0.096 C 
ATOM      6  C   UNL     1     -12.315  -0.088 -16.783  0.00  0.00    +0.074 C 
BRANCH   5   7
ATOM      7  C   UNL     1      -9.860   0.038 -15.963  0.00  0.00    +0.330 C 
ATOM      8  O   UNL     1      -8.859  -0.232 -16.615  0.00  0.00    -0.246 OA
BRANCH   7   9
ATOM      9  O   UNL     1      -9.829   0.896 -14.937  0.00  0.00    -0.478 OA
ATOM     10  H   UNL     1      -8.986   0.931 -14.426  0.00  0.00    +0.295 HD
ENDBRANCH   7   9
ENDBRANCH   5   7
ENDBRANCH   1   6
BRANCH   2  11
ATOM     11  C   UNL     1     -12.602   3.600 -16.189  0.00  0.00    +0.107 C 
BRANCH  11  12
ATOM     12  C   UNL     1     -11.292   4.173 -16.778  0.00  0.00    -0.000 C 
ATOM     13  C   UNL     1     -10.189   4.191 -15.763  0.00  0.00    +0.009 C 
ATOM     14  C   UNL     1     -11.539   5.540 -17.435  0.00  0.00    +0.009 C 
ENDBRANCH  11  12
ENDBRANCH   2  11
TORSDOF 5
ENDMDL
MODEL 2
REMARK VINA RESULT:      -5.0      1.704      4.022
REMARK  Name = min_compound96.pdb
REMARK  7 active torsions:
REMARK  status: ('A' for Active; 'I' for Inactive)
REMARK    1  A    between atoms: _2  and  _5
REMARK    2  A    between atoms: _3  and  _8
REMARK    3  A    between atoms: _5  and  _7
REMARK    4  A    between atoms: _10  and  _11
REMARK    5  A    between atoms: _11  and  _12
REMARK    6  A    between atoms: _12  and  _13
REMARK    7  A    between atoms: _12  and  _14
REMARK                            x       y       z     vdW  Elec       q    Type
REMARK                         _______ _______ _______ _____ _____    ______ ____
ROOT
ATOM      1  C   UNL     1     -12.501   1.886 -17.533  0.00  0.00    +0.237 C 
ATOM      2  N   UNL     1     -12.342   1.054 -16.456  0.00  0.00    -0.312 N 
ATOM      3  H   UNL     1     -12.587   1.373 -15.527  0.00  0.00    +0.149 HD
ATOM      4  O   UNL     1     -12.341   1.560 -18.702  0.00  0.00    -0.271 OA
ENDROOT
BRANCH   1   6
ATOM      5  C   UNL     1     -12.213   4.163 -16.540  0.00  0.00    +0.096 C 
ATOM      6  C   UNL     1     -12.952   3.243 -17.179  0.00  0.00    +0.074 C 
BRANCH   5   7
ATOM      7  C   UNL     1     -10.816   4.190 -16.058  0.00  0.00    +0.330 C 
ATOM      8  O   UNL     1     -10.078   5.105 -16.402  0.00  0.00    -0.246 OA
BRANCH   7   9
ATOM      9  O   UNL     1     -10.405   3.217 -15.237  0.00  0.00    -0.478 OA
ATOM     10  H   UNL     1      -9.935   3.508 -14.420  0.00  0.00    +0.295 HD
ENDBRANCH   7   9
ENDBRANCH   5   7
ENDBRANCH   1   6
BRANCH   2  11
ATOM     11  C   UNL     1     -12.117  -0.370 -16.645  0.00  0.00    +0.107 C 
BRANCH  11  12
ATOM     12  C   UNL     1     -10.647  -0.799 -16.425  0.00  0.00    -0.000 C 
ATOM     13  C   UNL     1      -9.969   0.055 -15.396  0.00  0.00    +0.009 C 
ATOM     14  C   UNL     1      -9.890  -0.861 -17.761  0.00  0.00    +0.009 C 
ENDBRANCH  11  12
ENDBRANCH   2  11
TORSDOF 5
ENDMDL
MODEL 3
REMARK VINA RESULT:      -4.9      1.951      2.769
REMARK  Name = min_compound96.pdb
REMARK  7 active torsions:
REMARK  status: ('A' for Active; 'I' for Inactive)
REMARK    1  A    between atoms: _2  and  _5
REMARK    2  A    between atoms: _3  and  _8
REMARK    3  A    between atoms: _5  and  _7
REMARK    4  A    between atoms: _10  and  _11
REMARK    5  A    between atoms: _11  and  _12
REMARK    6  A    between atoms: _12  and  _13
REMARK    7  A    between atoms: _12  and  _14
REMARK                            x       y       z     vdW  Elec       q    Type
REMARK                         _______ _______ _______ _____ _____    ______ ____
ROOT
ATOM      1  C   UNL     1     -12.192   2.095 -16.798  0.00  0.00    +0.237 C 
ATOM      2  N   UNL     1     -13.374   2.316 -16.144  0.00  0.00    -0.312 N 
ATOM      3  H   UNL     1     -14.013   1.549 -15.975  0.00  0.00    +0.149 HD
ATOM      4  O   UNL     1     -11.307   2.927 -16.953  0.00  0.00    -0.271 OA
ENDROOT
BRANCH   1   6
ATOM      5  C   UNL     1     -11.070  -0.140 -16.866  0.00  0.00    +0.096 C 
ATOM      6  C   UNL     1     -12.023   0.712 -17.278  0.00  0.00    +0.074 C 
BRANCH   5   7
ATOM      7  C   UNL     1      -9.996  -0.053 -15.855  0.00  0.00    +0.330 C 
ATOM      8  O   UNL     1      -9.202  -0.978 -15.739  0.00  0.00    -0.246 OA
BRANCH   7   9
ATOM      9  O   UNL     1      -9.911   1.053 -15.108  0.00  0.00    -0.478 OA
ATOM     10  H   UNL     1      -9.435   0.961 -14.248  0.00  0.00    +0.295 HD
ENDBRANCH   7   9
ENDBRANCH   5   7
ENDBRANCH   1   6
BRANCH   2  11
ATOM     11  C   UNL     1     -13.602   3.558 -15.422  0.00  0.00    +0.107 C 
BRANCH  11  12
ATOM     12  C   UNL     1     -15.045   3.707 -14.886  0.00  0.00    -0.000 C 
ATOM     13  C   UNL     1     -15.061   4.188 -13.466  0.00  0.00    +0.009 C 
ATOM     14  C   UNL     1     -15.845   2.413 -15.101  0.00  0.00    +0.009 C 
ENDBRANCH  11  12
ENDBRANCH   2  11
TORSDOF 5
ENDMDL
MODEL 4
REMARK VINA RESULT:      -4.9      2.047      3.015
REMARK  Name = min_compound96.pdb
REMARK  7 active torsions:
REMARK  status: ('A' for Active; 'I' for Inactive)
REMARK    1  A    between atoms: _2  and  _5
REMARK    2  A    between atoms: _3  and  _8
REMARK    3  A    between atoms: _5  and  _7
REMARK    4  A    between atoms: _10  and  _11
REMARK    5  A    between atoms: _11  and  _12
REMARK    6  A    between atoms: _12  and  _13
REMARK    7  A    between atoms: _12  and  _14
REMARK                            x       y       z     vdW  Elec       q    Type
REMARK                         _______ _______ _______ _____ _____    ______ ____
ROOT
ATOM      1  C   UNL     1     -11.988   3.463 -16.123  0.00  0.00    +0.237 C 
ATOM      2  N   UNL     1     -11.661   4.019 -17.332  0.00  0.00    -0.312 N 
ATOM      3  H   UNL     1     -10.858   3.681 -17.846  0.00  0.00    +0.149 HD
ATOM      4  O   UNL     1     -12.997   3.724 -15.480  0.00  0.00    -0.271 OA
ENDROOT
BRANCH   1   6
ATOM      5  C   UNL     1     -11.024   1.158 -16.029  0.00  0.00    +0.096 C 
ATOM      6  C   UNL     1     -11.031   2.447 -15.654  0.00  0.00    +0.074 C 
BRANCH   5   7
ATOM      7  C   UNL     1     -11.831   0.372 -16.985  0.00  0.00    +0.330 C 
ATOM      8  O   UNL     1     -12.438  -0.616 -16.591  0.00  0.00    -0.246 OA
BRANCH   7   9
ATOM      9  O   UNL     1     -11.891   0.781 -18.257  0.00  0.00    -0.478 OA
ATOM     10  H   UNL     1     -11.580   1.700 -18.433  0.00  0.00    +0.295 HD
ENDBRANCH   7   9
ENDBRANCH   5   7
ENDBRANCH   1   6
BRANCH   2  11
ATOM     11  C   UNL     1     -12.605   4.872 -18.036  0.00  0.00    +0.107 C 
BRANCH  11  12
ATOM     12  C   UNL     1     -12.483   6.368 -17.667  0.00  0.00    -0.000 C 
ATOM     13  C   UNL     1     -13.800   6.942 -17.237  0.00  0.00    +0.009 C 
ATOM     14  C   UNL     1     -11.815   7.160 -18.802  0.00  0.00    +0.009 C 
ENDBRANCH  11  12
ENDBRANCH   2  11
TORSDOF 5
ENDMDL
MODEL 5
REMARK VINA RESULT:      -4.8     12.969     13.751
REMARK  Name = min_compound96.pdb
REMARK  7 active torsions:
REMARK  status: ('A' for Active; 'I' for Inactive)
REMARK    1  A    between atoms: _2  and  _5
REMARK    2  A    between atoms: _3  and  _8
REMARK    3  A    between atoms: _5  and  _7
REMARK    4  A    between atoms: _10  and  _11
REMARK    5  A    between atoms: _11  and  _12
REMARK    6  A    between atoms: _12  and  _13
REMARK    7  A    between atoms: _12  and  _14
REMARK                            x       y       z     vdW  Elec       q    Type
REMARK                         _______ _______ _______ _____ _____    ______ ____
ROOT
ATOM      1  C   UNL     1     -14.651  -1.659  -3.535  0.00  0.00    +0.237 C 
ATOM      2  N   UNL     1     -14.528  -1.751  -4.896  0.00  0.00    -0.312 N 
ATOM      3  H   UNL     1     -14.946  -2.528  -5.392  0.00  0.00    +0.149 HD
ATOM      4  O   UNL     1     -14.280  -0.707  -2.859  0.00  0.00    -0.271 OA
ENDROOT
BRANCH   1   6
ATOM      5  C   UNL     1     -14.767  -3.700  -2.095  0.00  0.00    +0.096 C 
ATOM      6  C   UNL     1     -15.338  -2.805  -2.917  0.00  0.00    +0.074 C 
BRANCH   5   7
ATOM      7  C   UNL     1     -13.414  -3.829  -1.515  0.00  0.00    +0.330 C 
ATOM      8  O   UNL     1     -12.830  -4.904  -1.582  0.00  0.00    -0.246 OA
BRANCH   7   9
ATOM      9  O   UNL     1     -12.856  -2.754  -0.948  0.00  0.00    -0.478 OA
ATOM     10  H   UNL     1     -12.296  -2.922  -0.154  0.00  0.00    +0.295 HD
ENDBRANCH   7   9
ENDBRANCH   5   7
ENDBRANCH   1   6
BRANCH   2  11
ATOM     11  C   UNL     1     -14.075  -0.613  -5.680  0.00  0.00    +0.107 C 
BRANCH  11  12
ATOM     12  C   UNL     1     -15.203   0.072  -6.486  0.00  0.00    -0.000 C 
ATOM     13  C   UNL     1     -16.008  -0.922  -7.267  0.00  0.00    +0.009 C 
ATOM     14  C   UNL     1     -14.643   1.215  -7.347  0.00  0.00    +0.009 C 
ENDBRANCH  11  12
ENDBRANCH   2  11
TORSDOF 5
ENDMDL
MODEL 6
REMARK VINA RESULT:      -4.8     11.633     12.393
REMARK  Name = min_compound96.pdb
REMARK  7 active torsions:
REMARK  status: ('A' for Active; 'I' for Inactive)
REMARK    1  A    between atoms: _2  and  _5
REMARK    2  A    between atoms: _3  and  _8
REMARK    3  A    between atoms: _5  and  _7
REMARK    4  A    between atoms: _10  and  _11
REMARK    5  A    between atoms: _11  and  _12
REMARK    6  A    between atoms: _12  and  _13
REMARK    7  A    between atoms: _12  and  _14
REMARK                            x       y       z     vdW  Elec       q    Type
REMARK                         _______ _______ _______ _____ _____    ______ ____
ROOT
ATOM      1  C   UNL     1     -15.320  -0.410  -6.956  0.00  0.00    +0.237 C 
ATOM      2  N   UNL     1     -14.744   0.772  -6.573  0.00  0.00    -0.312 N 
ATOM      3  H   UNL     1     -15.153   1.652  -6.859  0.00  0.00    +0.149 HD
ATOM      4  O   UNL     1     -14.970  -1.519  -6.573  0.00  0.00    -0.271 OA
ENDROOT
BRANCH   1   6
ATOM      5  C   UNL     1     -17.762  -0.381  -7.496  0.00  0.00    +0.096 C 
ATOM      6  C   UNL     1     -16.476  -0.249  -7.856  0.00  0.00    +0.074 C 
BRANCH   5   7
ATOM      7  C   UNL     1     -18.436  -0.644  -6.207  0.00  0.00    +0.330 C 
ATOM      8  O   UNL     1     -19.348   0.088  -5.844  0.00  0.00    -0.246 OA
BRANCH   7   9
ATOM      9  O   UNL     1     -18.040  -1.696  -5.483  0.00  0.00    -0.478 OA
ATOM     10  H   UNL     1     -17.527  -1.493  -4.665  0.00  0.00    +0.295 HD
ENDBRANCH   7   9
ENDBRANCH   5   7
ENDBRANCH   1   6
BRANCH   2  11
ATOM     11  C   UNL     1     -13.739   0.802  -5.522  0.00  0.00    +0.107 C 
BRANCH  11  12
ATOM     12  C   UNL     1     -14.294   1.241  -4.147  0.00  0.00    -0.000 C 
ATOM     13  C   UNL     1     -13.571   2.442  -3.616  0.00  0.00    +0.009 C 
ATOM     14  C   UNL     1     -14.320   0.060  -3.164  0.00  0.00    +0.009 C 
ENDBRANCH  11  12
ENDBRANCH   2  11
TORSDOF 5
ENDMDL
MODEL 7
REMARK VINA RESULT:      -4.7      9.582     10.300
REMARK  Name = min_compound96.pdb
REMARK  7 active torsions:
REMARK  status: ('A' for Active; 'I' for Inactive)
REMARK    1  A    between atoms: _2  and  _5
REMARK    2  A    between atoms: _3  and  _8
REMARK    3  A    between atoms: _5  and  _7
REMARK    4  A    between atoms: _10  and  _11
REMARK    5  A    between atoms: _11  and  _12
REMARK    6  A    between atoms: _12  and  _13
REMARK    7  A    between atoms: _12  and  _14
REMARK                            x       y       z     vdW  Elec       q    Type
REMARK                         _______ _______ _______ _____ _____    ______ ____
ROOT
ATOM      1  C   UNL     1     -15.584   0.927  -7.601  0.00  0.00    +0.237 C 
ATOM      2  N   UNL     1     -16.167   2.123  -7.929  0.00  0.00    -0.312 N 
ATOM      3  H   UNL     1     -15.684   2.991  -7.739  0.00  0.00    +0.149 HD
ATOM      4  O   UNL     1     -16.033  -0.176  -7.888  0.00  0.00    -0.271 OA
ENDROOT
BRANCH   1   6
ATOM      5  C   UNL     1     -13.857   0.248  -5.925  0.00  0.00    +0.096 C 
ATOM      6  C   UNL     1     -14.297   1.061  -6.898  0.00  0.00    +0.074 C 
BRANCH   5   7
ATOM      7  C   UNL     1     -14.398  -0.978  -5.302  0.00  0.00    +0.330 C 
ATOM      8  O   UNL     1     -14.644  -0.987  -4.103  0.00  0.00    -0.246 OA
BRANCH   7   9
ATOM      9  O   UNL     1     -14.622  -2.043  -6.080  0.00  0.00    -0.478 OA
ATOM     10  H   UNL     1     -14.518  -1.901  -7.051  0.00  0.00    +0.295 HD
ENDBRANCH   7   9
ENDBRANCH   5   7
ENDBRANCH   1   6
BRANCH   2  11
ATOM     11  C   UNL     1     -17.322   2.169  -8.811  0.00  0.00    +0.107 C 
BRANCH  11  12
ATOM     12  C   UNL     1     -17.038   2.858 -10.166  0.00  0.00    -0.000 C 
ATOM     13  C   UNL     1     -15.909   3.839 -10.063  0.00  0.00    +0.009 C 
ATOM     14  C   UNL     1     -18.323   3.467 -10.750  0.00  0.00    +0.009 C 
ENDBRANCH  11  12
ENDBRANCH   2  11
TORSDOF 5
ENDMDL
MODEL 8
REMARK VINA RESULT:      -4.7      2.053      4.948
REMARK  Name = min_compound96.pdb
REMARK  7 active torsions:
REMARK  status: ('A' for Active; 'I' for Inactive)
REMARK    1  A    between atoms: _2  and  _5
REMARK    2  A    between atoms: _3  and  _8
REMARK    3  A    between atoms: _5  and  _7
REMARK    4  A    between atoms: _10  and  _11
REMARK    5  A    between atoms: _11  and  _12
REMARK    6  A    between atoms: _12  and  _13
REMARK    7  A    between atoms: _12  and  _14
REMARK                            x       y       z     vdW  Elec       q    Type
REMARK                         _______ _______ _______ _____ _____    ______ ____
ROOT
ATOM      1  C   UNL     1     -10.840   3.794 -16.604  0.00  0.00    +0.237 C 
ATOM      2  N   UNL     1     -10.959   2.609 -17.280  0.00  0.00    -0.312 N 
ATOM      3  H   UNL     1     -11.549   2.549 -18.100  0.00  0.00    +0.149 HD
ATOM      4  O   UNL     1     -10.071   3.998 -15.673  0.00  0.00    -0.271 OA
ENDROOT
BRANCH   1   6
ATOM      5  C   UNL     1     -13.034   4.916 -17.031  0.00  0.00    +0.096 C 
ATOM      6  C   UNL     1     -11.696   4.872 -17.130  0.00  0.00    +0.074 C 
BRANCH   5   7
ATOM      7  C   UNL     1     -14.035   4.043 -16.384  0.00  0.00    +0.330 C 
ATOM      8  O   UNL     1     -14.753   4.500 -15.503  0.00  0.00    -0.246 OA
BRANCH   7   9
ATOM      9  O   UNL     1     -14.142   2.776 -16.799  0.00  0.00    -0.478 OA
ATOM     10  H   UNL     1     -13.854   2.597 -17.725  0.00  0.00    +0.295 HD
ENDBRANCH   7   9
ENDBRANCH   5   7
ENDBRANCH   1   6
BRANCH   2  11
ATOM     11  C   UNL     1     -10.032   1.516 -17.032  0.00  0.00    +0.107 C 
BRANCH  11  12
ATOM     12  C   UNL     1     -10.636   0.371 -16.186  0.00  0.00    -0.000 C 
ATOM     13  C   UNL     1      -9.658  -0.748 -15.991  0.00  0.00    +0.009 C 
ATOM     14  C   UNL     1     -11.981  -0.089 -16.769  0.00  0.00    +0.009 C 
ENDBRANCH  11  12
ENDBRANCH   2  11
TORSDOF 5
ENDMDL
MODEL 9
REMARK VINA RESULT:      -4.6     11.256     12.148
REMARK  Name = min_compound96.pdb
REMARK  7 active torsions:
REMARK  status: ('A' for Active; 'I' for Inactive)
REMARK    1  A    between atoms: _2  and  _5
REMARK    2  A    between atoms: _3  and  _8
REMARK    3  A    between atoms: _5  and  _7
REMARK    4  A    between atoms: _10  and  _11
REMARK    5  A    between atoms: _11  and  _12
REMARK    6  A    between atoms: _12  and  _13
REMARK    7  A    between atoms: _12  and  _14
REMARK                            x       y       z     vdW  Elec       q    Type
REMARK                         _______ _______ _______ _____ _____    ______ ____
ROOT
ATOM      1  C   UNL     1     -15.184  -0.729  -6.541  0.00  0.00    +0.237 C 
ATOM      2  N   UNL     1     -15.517  -1.318  -5.350  0.00  0.00    -0.312 N 
ATOM      3  H   UNL     1     -16.343  -1.898  -5.284  0.00  0.00    +0.149 HD
ATOM      4  O   UNL     1     -14.153  -0.105  -6.753  0.00  0.00    -0.271 OA
ENDROOT
BRANCH   1   6
ATOM      5  C   UNL     1     -16.862   0.008  -8.243  0.00  0.00    +0.096 C 
ATOM      6  C   UNL     1     -16.168  -0.954  -7.615  0.00  0.00    +0.074 C 
BRANCH   5   7
ATOM      7  C   UNL     1     -16.864   1.483  -8.156  0.00  0.00    +0.330 C 
ATOM      8  O   UNL     1     -17.915   2.073  -7.940  0.00  0.00    -0.246 OA
BRANCH   7   9
ATOM      9  O   UNL     1     -15.702   2.132  -8.295  0.00  0.00    -0.478 OA
ATOM     10  H   UNL     1     -15.751   3.118  -8.284  0.00  0.00    +0.295 HD
ENDBRANCH   7   9
ENDBRANCH   5   7
ENDBRANCH   1   6
BRANCH   2  11
ATOM     11  C   UNL     1     -14.557  -1.379  -4.259  0.00  0.00    +0.107 C 
BRANCH  11  12
ATOM     12  C   UNL     1     -14.763  -0.280  -3.191  0.00  0.00    -0.000 C 
ATOM     13  C   UNL     1     -16.179   0.212  -3.168  0.00  0.00    +0.009 C 
ATOM     14  C   UNL     1     -13.729   0.845  -3.358  0.00  0.00    +0.009 C 
ENDBRANCH  11  12
ENDBRANCH   2  11
TORSDOF 5
ENDMDL
