MODEL 1
REMARK VINA RESULT:      -5.5      0.000      0.000
REMARK  Name = min_compound9.pdb
REMARK  0 active torsions:
REMARK  status: ('A' for Active; 'I' for Inactive)
REMARK                            x       y       z     vdW  Elec       q    Type
REMARK                         _______ _______ _______ _____ _____    ______ ____
ROOT
ATOM      1  C   UNL     1     -11.345  -1.071 -16.244  0.00  0.00    +0.023 A 
ATOM      2  C   UNL     1     -10.161  -0.709 -15.621  0.00  0.00    +0.113 A 
ATOM      3  N   UNL     1      -9.740   0.569 -15.489  0.00  0.00    -0.237 NA
ATOM      4  C   UNL     1     -10.542   1.524 -16.006  0.00  0.00    +0.167 A 
ATOM      5  N   UNL     1     -10.105   2.829 -15.864  0.00  0.00    -0.265 N 
ATOM      6  H   UNL     1      -9.232   2.985 -15.385  0.00  0.00    +0.156 HD
ATOM      7  C   UNL     1     -10.809   3.889 -16.344  0.00  0.00    +0.256 C 
ATOM      8  O   UNL     1     -10.411   5.044 -16.208  0.00  0.00    -0.272 OA
ATOM      9  C   UNL     1     -12.113   3.546 -17.070  0.00  0.00    +0.325 C 
ATOM     10  O   UNL     1     -12.577   2.209 -17.172  0.00  0.00    -0.479 OA
ATOM     11  C   UNL     1     -11.747   1.262 -16.649  0.00  0.00    +0.161 A 
ATOM     12  C   UNL     1     -12.151  -0.063 -16.765  0.00  0.00    +0.051 A 
ENDROOT
TORSDOF 0
ENDMDL
MODEL 2
REMARK VINA RESULT:      -5.3      1.986      2.778
REMARK  Name = min_compound9.pdb
REMARK  0 active torsions:
REMARK  status: ('A' for Active; 'I' for Inactive)
REMARK                            x       y       z     vdW  Elec       q    Type
REMARK                         _______ _______ _______ _____ _____    ______ ____
ROOT
ATOM      1  C   UNL     1      -9.947   0.185 -15.554  0.00  0.00    +0.023 A 
ATOM      2  C   UNL     1     -10.076  -0.627 -16.670  0.00  0.00    +0.113 A 
ATOM      3  N   UNL     1     -10.841  -0.318 -17.741  0.00  0.00    -0.237 NA
ATOM      4  C   UNL     1     -11.505   0.855 -17.689  0.00  0.00    +0.167 A 
ATOM      5  N   UNL     1     -12.283   1.165 -18.791  0.00  0.00    -0.265 N 
ATOM      6  H   UNL     1     -12.300   0.508 -19.556  0.00  0.00    +0.156 HD
ATOM      7  C   UNL     1     -13.012   2.310 -18.869  0.00  0.00    +0.256 C 
ATOM      8  O   UNL     1     -13.697   2.574 -19.855  0.00  0.00    -0.272 OA
ATOM      9  C   UNL     1     -12.933   3.232 -17.649  0.00  0.00    +0.325 C 
ATOM     10  O   UNL     1     -12.097   2.930 -16.542  0.00  0.00    -0.479 OA
ATOM     11  C   UNL     1     -11.442   1.737 -16.616  0.00  0.00    +0.161 A 
ATOM     12  C   UNL     1     -10.644   1.389 -15.531  0.00  0.00    +0.051 A 
ENDROOT
TORSDOF 0
ENDMDL
MODEL 3
REMARK VINA RESULT:      -5.1      2.382      4.171
REMARK  Name = min_compound9.pdb
REMARK  0 active torsions:
REMARK  status: ('A' for Active; 'I' for Inactive)
REMARK                            x       y       z     vdW  Elec       q    Type
REMARK                         _______ _______ _______ _____ _____    ______ ____
ROOT
ATOM      1  C   UNL     1     -13.249   3.718 -16.493  0.00  0.00    +0.023 A 
ATOM      2  C   UNL     1     -13.555   3.173 -17.730  0.00  0.00    +0.113 A 
ATOM      3  N   UNL     1     -12.951   2.077 -18.240  0.00  0.00    -0.237 NA
ATOM      4  C   UNL     1     -11.997   1.505 -17.477  0.00  0.00    +0.167 A 
ATOM      5  N   UNL     1     -11.386   0.381 -18.004  0.00  0.00    -0.265 N 
ATOM      6  H   UNL     1     -11.690   0.060 -18.911  0.00  0.00    +0.156 HD
ATOM      7  C   UNL     1     -10.403  -0.290 -17.347  0.00  0.00    +0.256 C 
ATOM      8  O   UNL     1      -9.870  -1.289 -17.826  0.00  0.00    -0.272 OA
ATOM      9  C   UNL     1     -10.001   0.286 -15.986  0.00  0.00    +0.325 C 
ATOM     10  O   UNL     1     -10.663   1.412 -15.431  0.00  0.00    -0.479 OA
ATOM     11  C   UNL     1     -11.618   1.975 -16.224  0.00  0.00    +0.161 A 
ATOM     12  C   UNL     1     -12.262   3.104 -15.728  0.00  0.00    +0.051 A 
ENDROOT
TORSDOF 0
ENDMDL
MODEL 4
REMARK VINA RESULT:      -5.1      1.670      3.806
REMARK  Name = min_compound9.pdb
REMARK  0 active torsions:
REMARK  status: ('A' for Active; 'I' for Inactive)
REMARK                            x       y       z     vdW  Elec       q    Type
REMARK                         _______ _______ _______ _____ _____    ______ ____
ROOT
ATOM      1  C   UNL     1     -11.735   4.693 -17.352  0.00  0.00    +0.023 A 
ATOM      2  C   UNL     1     -10.796   4.745 -16.335  0.00  0.00    +0.113 A 
ATOM      3  N   UNL     1     -10.245   3.651 -15.762  0.00  0.00    -0.237 NA
ATOM      4  C   UNL     1     -10.657   2.455 -16.230  0.00  0.00    +0.167 A 
ATOM      5  N   UNL     1     -10.087   1.340 -15.641  0.00  0.00    -0.265 N 
ATOM      6  H   UNL     1      -9.404   1.488 -14.914  0.00  0.00    +0.156 HD
ATOM      7  C   UNL     1     -10.416   0.073 -16.009  0.00  0.00    +0.256 C 
ATOM      8  O   UNL     1      -9.899  -0.909 -15.479  0.00  0.00    -0.272 OA
ATOM      9  C   UNL     1     -11.474  -0.046 -17.109  0.00  0.00    +0.325 C 
ATOM     10  O   UNL     1     -12.022   1.101 -17.740  0.00  0.00    -0.479 OA
ATOM     11  C   UNL     1     -11.594   2.298 -17.246  0.00  0.00    +0.161 A 
ATOM     12  C   UNL     1     -12.139   3.444 -17.814  0.00  0.00    +0.051 A 
ENDROOT
TORSDOF 0
ENDMDL
MODEL 5
REMARK VINA RESULT:      -5.1      2.162      4.344
REMARK  Name = min_compound9.pdb
REMARK  0 active torsions:
REMARK  status: ('A' for Active; 'I' for Inactive)
REMARK                            x       y       z     vdW  Elec       q    Type
REMARK                         _______ _______ _______ _____ _____    ______ ____
ROOT
ATOM      1  C   UNL     1     -11.098   4.787 -16.971  0.00  0.00    +0.023 A 
ATOM      2  C   UNL     1     -12.461   4.620 -16.780  0.00  0.00    +0.113 A 
ATOM      3  N   UNL     1     -13.056   3.418 -16.617  0.00  0.00    -0.237 NA
ATOM      4  C   UNL     1     -12.250   2.337 -16.649  0.00  0.00    +0.167 A 
ATOM      5  N   UNL     1     -12.867   1.110 -16.478  0.00  0.00    -0.265 N 
ATOM      6  H   UNL     1     -13.866   1.100 -16.337  0.00  0.00    +0.156 HD
ATOM      7  C   UNL     1     -12.177  -0.061 -16.497  0.00  0.00    +0.256 C 
ATOM      8  O   UNL     1     -12.737  -1.144 -16.341  0.00  0.00    -0.272 OA
ATOM      9  C   UNL     1     -10.669   0.060 -16.735  0.00  0.00    +0.325 C 
ATOM     10  O   UNL     1     -10.036   1.324 -16.864  0.00  0.00    -0.479 OA
ATOM     11  C   UNL     1     -10.873   2.400 -16.835  0.00  0.00    +0.161 A 
ATOM     12  C   UNL     1     -10.292   3.653 -16.997  0.00  0.00    +0.051 A 
ENDROOT
TORSDOF 0
ENDMDL
MODEL 6
REMARK VINA RESULT:      -5.0     12.582     13.285
REMARK  Name = min_compound9.pdb
REMARK  0 active torsions:
REMARK  status: ('A' for Active; 'I' for Inactive)
REMARK                            x       y       z     vdW  Elec       q    Type
REMARK                         _______ _______ _______ _____ _____    ______ ____
ROOT
ATOM      1  C   UNL     1     -14.224   1.153  -6.281  0.00  0.00    +0.023 A 
ATOM      2  C   UNL     1     -14.573  -0.024  -6.924  0.00  0.00    +0.113 A 
ATOM      3  N   UNL     1     -14.769  -1.200  -6.287  0.00  0.00    -0.237 NA
ATOM      4  C   UNL     1     -14.607  -1.194  -4.948  0.00  0.00    +0.167 A 
ATOM      5  N   UNL     1     -14.812  -2.401  -4.303  0.00  0.00    -0.265 N 
ATOM      6  H   UNL     1     -15.073  -3.198  -4.864  0.00  0.00    +0.156 HD
ATOM      7  C   UNL     1     -14.675  -2.541  -2.957  0.00  0.00    +0.256 C 
ATOM      8  O   UNL     1     -14.864  -3.618  -2.397  0.00  0.00    -0.272 OA
ATOM      9  C   UNL     1     -14.260  -1.278  -2.197  0.00  0.00    +0.325 C 
ATOM     10  O   UNL     1     -14.095  -0.033  -2.859  0.00  0.00    -0.479 OA
ATOM     11  C   UNL     1     -14.258  -0.067  -4.212  0.00  0.00    +0.161 A 
ATOM     12  C   UNL     1     -14.065   1.127  -4.899  0.00  0.00    +0.051 A 
ENDROOT
TORSDOF 0
ENDMDL
MODEL 7
REMARK VINA RESULT:      -4.9     11.597     12.119
REMARK  Name = min_compound9.pdb
REMARK  0 active torsions:
REMARK  status: ('A' for Active; 'I' for Inactive)
REMARK                            x       y       z     vdW  Elec       q    Type
REMARK                         _______ _______ _______ _____ _____    ______ ____
ROOT
ATOM      1  C   UNL     1     -13.739   0.488  -3.055  0.00  0.00    +0.023 A 
ATOM      2  C   UNL     1     -14.363  -0.743  -2.937  0.00  0.00    +0.113 A 
ATOM      3  N   UNL     1     -15.067  -1.329  -3.931  0.00  0.00    -0.237 NA
ATOM      4  C   UNL     1     -15.149  -0.650  -5.093  0.00  0.00    +0.167 A 
ATOM      5  N   UNL     1     -15.868  -1.258  -6.107  0.00  0.00    -0.265 N 
ATOM      6  H   UNL     1     -16.275  -2.161  -5.919  0.00  0.00    +0.156 HD
ATOM      7  C   UNL     1     -16.038  -0.681  -7.326  0.00  0.00    +0.256 C 
ATOM      8  O   UNL     1     -16.677  -1.234  -8.219  0.00  0.00    -0.272 OA
ATOM      9  C   UNL     1     -15.396   0.697  -7.505  0.00  0.00    +0.325 C 
ATOM     10  O   UNL     1     -14.621   1.295  -6.477  0.00  0.00    -0.479 OA
ATOM     11  C   UNL     1     -14.559   0.591  -5.311  0.00  0.00    +0.161 A 
ATOM     12  C   UNL     1     -13.840   1.165  -4.267  0.00  0.00    +0.051 A 
ENDROOT
TORSDOF 0
ENDMDL
MODEL 8
REMARK VINA RESULT:      -4.7     11.825     12.394
REMARK  Name = min_compound9.pdb
REMARK  0 active torsions:
REMARK  status: ('A' for Active; 'I' for Inactive)
REMARK                            x       y       z     vdW  Elec       q    Type
REMARK                         _______ _______ _______ _____ _____    ______ ____
ROOT
ATOM      1  C   UNL     1     -14.048   2.541  -3.531  0.00  0.00    +0.023 A 
ATOM      2  C   UNL     1     -15.276   3.025  -3.955  0.00  0.00    +0.113 A 
ATOM      3  N   UNL     1     -16.073   2.383  -4.839  0.00  0.00    -0.237 NA
ATOM      4  C   UNL     1     -15.618   1.207  -5.317  0.00  0.00    +0.167 A 
ATOM      5  N   UNL     1     -16.441   0.556  -6.218  0.00  0.00    -0.265 N 
ATOM      6  H   UNL     1     -17.320   0.990  -6.453  0.00  0.00    +0.156 HD
ATOM      7  C   UNL     1     -16.103  -0.633  -6.786  0.00  0.00    +0.256 C 
ATOM      8  O   UNL     1     -16.846  -1.203  -7.583  0.00  0.00    -0.272 OA
ATOM      9  C   UNL     1     -14.741  -1.201  -6.377  0.00  0.00    +0.325 C 
ATOM     10  O   UNL     1     -13.922  -0.550  -5.418  0.00  0.00    -0.479 OA
ATOM     11  C   UNL     1     -14.401   0.639  -4.954  0.00  0.00    +0.161 A 
ATOM     12  C   UNL     1     -13.606   1.325  -4.042  0.00  0.00    +0.051 A 
ENDROOT
TORSDOF 0
ENDMDL
MODEL 9
REMARK VINA RESULT:      -4.6     13.708     14.340
REMARK  Name = min_compound9.pdb
REMARK  0 active torsions:
REMARK  status: ('A' for Active; 'I' for Inactive)
REMARK                            x       y       z     vdW  Elec       q    Type
REMARK                         _______ _______ _______ _____ _____    ______ ____
ROOT
ATOM      1  C   UNL     1     -13.627   2.281  -3.605  0.00  0.00    +0.023 A 
ATOM      2  C   UNL     1     -14.917   2.698  -3.893  0.00  0.00    +0.113 A 
ATOM      3  N   UNL     1     -15.994   1.881  -3.873  0.00  0.00    -0.237 NA
ATOM      4  C   UNL     1     -15.766   0.591  -3.551  0.00  0.00    +0.167 A 
ATOM      5  N   UNL     1     -16.874  -0.238  -3.530  0.00  0.00    -0.265 N 
ATOM      6  H   UNL     1     -17.771   0.168  -3.746  0.00  0.00    +0.156 HD
ATOM      7  C   UNL     1     -16.788  -1.562  -3.231  0.00  0.00    +0.256 C 
ATOM      8  O   UNL     1     -17.781  -2.286  -3.213  0.00  0.00    -0.272 OA
ATOM      9  C   UNL     1     -15.380  -2.086  -2.934  0.00  0.00    +0.325 C 
ATOM     10  O   UNL     1     -14.254  -1.221  -2.913  0.00  0.00    -0.479 OA
ATOM     11  C   UNL     1     -14.510   0.076  -3.247  0.00  0.00    +0.161 A 
ATOM     12  C   UNL     1     -13.424   0.944  -3.275  0.00  0.00    +0.051 A 
ENDROOT
TORSDOF 0
ENDMDL
