MODEL 1
REMARK VINA RESULT:      -7.5      0.000      0.000
REMARK  Name = min_compound912.pdb
REMARK  5 active torsions:
REMARK  status: ('A' for Active; 'I' for Inactive)
REMARK    1  A    between atoms: _2  and  _19
REMARK    2  A    between atoms: _4  and  _21
REMARK    3  A    between atoms: _12  and  _21
REMARK    4  A    between atoms: _16  and  _22
REMARK    5  A    between atoms: _19  and  _20
REMARK                            x       y       z     vdW  Elec       q    Type
REMARK                         _______ _______ _______ _____ _____    ______ ____
ROOT
ATOM      1  O   UNL     1     -12.950   2.019 -20.403  0.00  0.00    -0.270 OA
ATOM      2  C   UNL     1     -12.988   1.953 -19.176  0.00  0.00    +0.245 C 
ATOM      3  N   UNL     1     -12.331   0.938 -18.552  0.00  0.00    -0.297 N 
ATOM      4  H   UNL     1     -11.790   0.365 -19.188  0.00  0.00    +0.150 HD
ATOM      5  C   UNL     1     -12.025   0.905 -17.146  0.00  0.00    +0.087 C 
ATOM      6  C   UNL     1     -11.519  -0.496 -16.718  0.00  0.00    +0.037 C 
ATOM      7  C   UNL     1     -10.070  -0.301 -16.277  0.00  0.00    +0.003 C 
ATOM      8  C   UNL     1     -10.038   1.124 -15.759  0.00  0.00    +0.003 C 
ATOM      9  C   UNL     1     -10.870   1.870 -16.791  0.00  0.00    +0.037 C 
ATOM     10  S   UNL     1     -13.557   1.285 -16.246  0.00  0.00    -0.084 S 
ATOM     11  C   UNL     1     -14.002   2.814 -17.030  0.00  0.00    +0.077 C 
ATOM     12  C   UNL     1     -13.717   2.971 -18.351  0.00  0.00    +0.055 C 
ENDROOT
BRANCH  11  13
ATOM     13  N   UNL     1     -14.747   3.773 -16.323  0.00  0.00    -0.309 N 
ATOM     14  H   UNL     1     -14.353   4.709 -16.378  0.00  0.00    +0.153 HD
BRANCH  13  15
ATOM     15  C   UNL     1     -15.421   3.616 -15.085  0.00  0.00    +0.032 A 
ATOM     16  C   UNL     1     -16.581   2.852 -14.912  0.00  0.00    +0.023 A 
ATOM     17  C   UNL     1     -17.209   2.760 -13.669  0.00  0.00    +0.002 A 
ATOM     18  C   UNL     1     -16.693   3.444 -12.576  0.00  0.00    +0.003 A 
ATOM     19  C   UNL     1     -15.550   4.238 -12.714  0.00  0.00    -0.049 A 
ATOM     20  C   UNL     1     -15.065   4.942 -11.483  0.00  0.00    +0.044 C 
ATOM     21  C   UNL     1     -14.932   4.329 -13.973  0.00  0.00    +0.026 A 
ENDBRANCH  13  15
ENDBRANCH  11  13
BRANCH  12  22
ATOM     22  C   UNL     1     -14.120   4.159 -19.042  0.00  0.00    +0.121 C 
BRANCH  22  23
ATOM     23  N   UNL     1     -14.511   5.367 -19.751  0.00  0.00    -0.326 NA
ATOM     24  H   UNL     1     -13.781   6.073 -19.649  0.00  0.00    +0.119 HD
ATOM     25  H   UNL     1     -14.643   5.154 -20.739  0.00  0.00    +0.119 HD
ENDBRANCH  22  23
ENDBRANCH  12  22
TORSDOF 4
ENDMDL
MODEL 2
REMARK VINA RESULT:      -7.1     13.427     15.627
REMARK  Name = min_compound912.pdb
REMARK  5 active torsions:
REMARK  status: ('A' for Active; 'I' for Inactive)
REMARK    1  A    between atoms: _2  and  _19
REMARK    2  A    between atoms: _4  and  _21
REMARK    3  A    between atoms: _12  and  _21
REMARK    4  A    between atoms: _16  and  _22
REMARK    5  A    between atoms: _19  and  _20
REMARK                            x       y       z     vdW  Elec       q    Type
REMARK                         _______ _______ _______ _____ _____    ______ ____
ROOT
ATOM      1  O   UNL     1     -17.827  -3.983  -0.416  0.00  0.00    -0.270 OA
ATOM      2  C   UNL     1     -16.682  -4.024  -0.862  0.00  0.00    +0.245 C 
ATOM      3  N   UNL     1     -15.716  -4.645  -0.134  0.00  0.00    -0.297 N 
ATOM      4  H   UNL     1     -16.074  -5.099   0.697  0.00  0.00    +0.150 HD
ATOM      5  C   UNL     1     -14.433  -5.044  -0.652  0.00  0.00    +0.087 C 
ATOM      6  C   UNL     1     -13.480  -5.474   0.492  0.00  0.00    +0.037 C 
ATOM      7  C   UNL     1     -13.205  -6.960   0.272  0.00  0.00    +0.003 C 
ATOM      8  C   UNL     1     -13.324  -7.131  -1.231  0.00  0.00    +0.003 C 
ATOM      9  C   UNL     1     -14.546  -6.287  -1.563  0.00  0.00    +0.037 C 
ATOM     10  S   UNL     1     -13.722  -3.608  -1.510  0.00  0.00    -0.084 S 
ATOM     11  C   UNL     1     -15.054  -3.224  -2.618  0.00  0.00    +0.077 C 
ATOM     12  C   UNL     1     -16.330  -3.429  -2.193  0.00  0.00    +0.055 C 
ENDROOT
BRANCH  11  13
ATOM     13  N   UNL     1     -14.784  -2.600  -3.848  0.00  0.00    -0.309 N 
ATOM     14  H   UNL     1     -14.237  -3.179  -4.481  0.00  0.00    +0.153 HD
BRANCH  13  15
ATOM     15  C   UNL     1     -14.494  -1.233  -4.089  0.00  0.00    +0.032 A 
ATOM     16  C   UNL     1     -14.256  -0.290  -3.084  0.00  0.00    +0.023 A 
ATOM     17  C   UNL     1     -14.000   1.048  -3.391  0.00  0.00    +0.002 A 
ATOM     18  C   UNL     1     -13.991   1.469  -4.714  0.00  0.00    +0.003 A 
ATOM     19  C   UNL     1     -14.249   0.561  -5.747  0.00  0.00    -0.049 A 
ATOM     20  C   UNL     1     -14.222   1.103  -7.144  0.00  0.00    +0.044 C 
ATOM     21  C   UNL     1     -14.513  -0.781  -5.424  0.00  0.00    +0.026 A 
ENDBRANCH  13  15
ENDBRANCH  11  13
BRANCH  12  22
ATOM     22  C   UNL     1     -17.437  -3.067  -3.026  0.00  0.00    +0.121 C 
BRANCH  22  23
ATOM     23  N   UNL     1     -18.555  -2.711  -3.886  0.00  0.00    -0.326 NA
ATOM     24  H   UNL     1     -19.097  -3.548  -4.103  0.00  0.00    +0.119 HD
ATOM     25  H   UNL     1     -19.150  -2.036  -3.408  0.00  0.00    +0.119 HD
ENDBRANCH  22  23
ENDBRANCH  12  22
TORSDOF 4
ENDMDL
MODEL 3
REMARK VINA RESULT:      -7.0      2.192      2.451
REMARK  Name = min_compound912.pdb
REMARK  5 active torsions:
REMARK  status: ('A' for Active; 'I' for Inactive)
REMARK    1  A    between atoms: _2  and  _19
REMARK    2  A    between atoms: _4  and  _21
REMARK    3  A    between atoms: _12  and  _21
REMARK    4  A    between atoms: _16  and  _22
REMARK    5  A    between atoms: _19  and  _20
REMARK                            x       y       z     vdW  Elec       q    Type
REMARK                         _______ _______ _______ _____ _____    ______ ____
ROOT
ATOM      1  O   UNL     1     -12.036   6.498 -18.758  0.00  0.00    -0.270 OA
ATOM      2  C   UNL     1     -12.504   5.570 -18.101  0.00  0.00    +0.245 C 
ATOM      3  N   UNL     1     -11.877   4.363 -18.130  0.00  0.00    -0.297 N 
ATOM      4  H   UNL     1     -11.008   4.380 -18.649  0.00  0.00    +0.150 HD
ATOM      5  C   UNL     1     -12.113   3.298 -17.192  0.00  0.00    +0.087 C 
ATOM      6  C   UNL     1     -11.445   1.981 -17.664  0.00  0.00    +0.037 C 
ATOM      7  C   UNL     1     -10.370   1.663 -16.628  0.00  0.00    +0.003 C 
ATOM      8  C   UNL     1     -10.913   2.262 -15.345  0.00  0.00    +0.003 C 
ATOM      9  C   UNL     1     -11.474   3.596 -15.816  0.00  0.00    +0.037 C 
ATOM     10  S   UNL     1     -13.911   3.049 -17.090  0.00  0.00    -0.084 S 
ATOM     11  C   UNL     1     -14.427   4.705 -16.712  0.00  0.00    +0.077 C 
ATOM     12  C   UNL     1     -13.729   5.740 -17.253  0.00  0.00    +0.055 C 
ENDROOT
BRANCH  11  13
ATOM     13  N   UNL     1     -15.608   4.921 -15.981  0.00  0.00    -0.309 N 
ATOM     14  H   UNL     1     -15.922   5.888 -16.001  0.00  0.00    +0.153 HD
BRANCH  13  15
ATOM     15  C   UNL     1     -15.998   4.322 -14.757  0.00  0.00    +0.032 A 
ATOM     16  C   UNL     1     -16.932   3.286 -14.650  0.00  0.00    +0.023 A 
ATOM     17  C   UNL     1     -17.290   2.757 -13.408  0.00  0.00    +0.002 A 
ATOM     18  C   UNL     1     -16.726   3.268 -12.246  0.00  0.00    +0.003 A 
ATOM     19  C   UNL     1     -15.807   4.321 -12.309  0.00  0.00    -0.049 A 
ATOM     20  C   UNL     1     -15.252   4.811 -11.006  0.00  0.00    +0.044 C 
ATOM     21  C   UNL     1     -15.462   4.849 -13.565  0.00  0.00    +0.026 A 
ENDBRANCH  13  15
ENDBRANCH  11  13
BRANCH  12  22
ATOM     22  C   UNL     1     -14.152   7.091 -17.033  0.00  0.00    +0.121 C 
BRANCH  22  23
ATOM     23  N   UNL     1     -14.565   8.465 -16.799  0.00  0.00    -0.326 NA
ATOM     24  H   UNL     1     -15.500   8.474 -16.389  0.00  0.00    +0.119 HD
ATOM     25  H   UNL     1     -13.909   8.913 -16.160  0.00  0.00    +0.119 HD
ENDBRANCH  22  23
ENDBRANCH  12  22
TORSDOF 4
ENDMDL
MODEL 4
REMARK VINA RESULT:      -6.9      1.972      5.770
REMARK  Name = min_compound912.pdb
REMARK  5 active torsions:
REMARK  status: ('A' for Active; 'I' for Inactive)
REMARK    1  A    between atoms: _2  and  _19
REMARK    2  A    between atoms: _4  and  _21
REMARK    3  A    between atoms: _12  and  _21
REMARK    4  A    between atoms: _16  and  _22
REMARK    5  A    between atoms: _19  and  _20
REMARK                            x       y       z     vdW  Elec       q    Type
REMARK                         _______ _______ _______ _____ _____    ______ ____
ROOT
ATOM      1  O   UNL     1     -16.258   3.640 -19.810  0.00  0.00    -0.270 OA
ATOM      2  C   UNL     1     -15.582   3.703 -18.786  0.00  0.00    +0.245 C 
ATOM      3  N   UNL     1     -16.160   4.167 -17.645  0.00  0.00    -0.297 N 
ATOM      4  H   UNL     1     -17.151   4.344 -17.746  0.00  0.00    +0.150 HD
ATOM      5  C   UNL     1     -15.607   4.007 -16.326  0.00  0.00    +0.087 C 
ATOM      6  C   UNL     1     -16.367   4.878 -15.293  0.00  0.00    +0.037 C 
ATOM      7  C   UNL     1     -17.034   3.898 -14.331  0.00  0.00    +0.003 C 
ATOM      8  C   UNL     1     -16.110   2.695 -14.339  0.00  0.00    +0.003 C 
ATOM      9  C   UNL     1     -15.762   2.557 -15.814  0.00  0.00    +0.037 C 
ATOM     10  S   UNL     1     -13.871   4.544 -16.394  0.00  0.00    -0.084 S 
ATOM     11  C   UNL     1     -13.292   3.536 -17.736  0.00  0.00    +0.077 C 
ATOM     12  C   UNL     1     -14.149   3.261 -18.755  0.00  0.00    +0.055 C 
ENDROOT
BRANCH  11  13
ATOM     13  N   UNL     1     -11.941   3.154 -17.791  0.00  0.00    -0.309 N 
ATOM     14  H   UNL     1     -11.544   3.215 -18.726  0.00  0.00    +0.153 HD
BRANCH  13  15
ATOM     15  C   UNL     1     -11.296   2.117 -17.070  0.00  0.00    +0.032 A 
ATOM     16  C   UNL     1     -11.016   2.168 -15.701  0.00  0.00    +0.023 A 
ATOM     17  C   UNL     1     -10.355   1.120 -15.057  0.00  0.00    +0.002 A 
ATOM     18  C   UNL     1      -9.950   0.005 -15.778  0.00  0.00    +0.003 A 
ATOM     19  C   UNL     1     -10.190  -0.072 -17.154  0.00  0.00    -0.049 A 
ATOM     20  C   UNL     1      -9.716  -1.311 -17.853  0.00  0.00    +0.044 C 
ATOM     21  C   UNL     1     -10.848   0.993 -17.791  0.00  0.00    +0.026 A 
ENDBRANCH  13  15
ENDBRANCH  11  13
BRANCH  12  22
ATOM     22  C   UNL     1     -13.704   2.512 -19.892  0.00  0.00    +0.121 C 
BRANCH  22  23
ATOM     23  N   UNL     1     -13.267   1.759 -21.057  0.00  0.00    -0.326 NA
ATOM     24  H   UNL     1     -13.956   1.039 -21.275  0.00  0.00    +0.119 HD
ATOM     25  H   UNL     1     -13.171   2.390 -21.852  0.00  0.00    +0.119 HD
ENDBRANCH  22  23
ENDBRANCH  12  22
TORSDOF 4
ENDMDL
MODEL 5
REMARK VINA RESULT:      -6.7      2.769      5.958
REMARK  Name = min_compound912.pdb
REMARK  5 active torsions:
REMARK  status: ('A' for Active; 'I' for Inactive)
REMARK    1  A    between atoms: _2  and  _19
REMARK    2  A    between atoms: _4  and  _21
REMARK    3  A    between atoms: _12  and  _21
REMARK    4  A    between atoms: _16  and  _22
REMARK    5  A    between atoms: _19  and  _20
REMARK                            x       y       z     vdW  Elec       q    Type
REMARK                         _______ _______ _______ _____ _____    ______ ____
ROOT
ATOM      1  O   UNL     1     -14.135   3.634 -14.776  0.00  0.00    -0.270 OA
ATOM      2  C   UNL     1     -13.596   3.098 -15.742  0.00  0.00    +0.245 C 
ATOM      3  N   UNL     1     -12.350   2.574 -15.592  0.00  0.00    -0.297 N 
ATOM      4  H   UNL     1     -12.016   2.611 -14.637  0.00  0.00    +0.150 HD
ATOM      5  C   UNL     1     -11.732   1.658 -16.515  0.00  0.00    +0.087 C 
ATOM      6  C   UNL     1     -10.227   1.472 -16.192  0.00  0.00    +0.037 C 
ATOM      7  C   UNL     1     -10.066   0.010 -15.781  0.00  0.00    +0.003 C 
ATOM      8  C   UNL     1     -11.158  -0.706 -16.552  0.00  0.00    +0.003 C 
ATOM      9  C   UNL     1     -12.340   0.242 -16.408  0.00  0.00    +0.037 C 
ATOM     10  S   UNL     1     -11.899   2.368 -18.180  0.00  0.00    -0.084 S 
ATOM     11  C   UNL     1     -13.654   2.636 -18.224  0.00  0.00    +0.077 C 
ATOM     12  C   UNL     1     -14.284   2.986 -17.071  0.00  0.00    +0.055 C 
ENDROOT
BRANCH  11  13
ATOM     13  N   UNL     1     -14.335   2.612 -19.453  0.00  0.00    -0.309 N 
ATOM     14  H   UNL     1     -15.084   1.925 -19.484  0.00  0.00    +0.153 HD
BRANCH  13  15
ATOM     15  C   UNL     1     -13.796   2.783 -20.753  0.00  0.00    +0.032 A 
ATOM     16  C   UNL     1     -13.441   1.730 -21.603  0.00  0.00    +0.023 A 
ATOM     17  C   UNL     1     -12.892   1.970 -22.864  0.00  0.00    +0.002 A 
ATOM     18  C   UNL     1     -12.676   3.273 -23.293  0.00  0.00    +0.003 A 
ATOM     19  C   UNL     1     -12.995   4.353 -22.462  0.00  0.00    -0.049 A 
ATOM     20  C   UNL     1     -12.726   5.724 -23.006  0.00  0.00    +0.044 C 
ATOM     21  C   UNL     1     -13.539   4.097 -21.193  0.00  0.00    +0.026 A 
ENDBRANCH  13  15
ENDBRANCH  11  13
BRANCH  12  22
ATOM     22  C   UNL     1     -15.685   3.280 -17.073  0.00  0.00    +0.121 C 
BRANCH  22  23
ATOM     23  N   UNL     1     -17.113   3.560 -17.074  0.00  0.00    -0.326 NA
ATOM     24  H   UNL     1     -17.559   3.053 -16.308  0.00  0.00    +0.119 HD
ATOM     25  H   UNL     1     -17.263   4.561 -16.952  0.00  0.00    +0.119 HD
ENDBRANCH  22  23
ENDBRANCH  12  22
TORSDOF 4
ENDMDL
MODEL 6
REMARK VINA RESULT:      -6.6      3.297      6.006
REMARK  Name = min_compound912.pdb
REMARK  5 active torsions:
REMARK  status: ('A' for Active; 'I' for Inactive)
REMARK    1  A    between atoms: _2  and  _19
REMARK    2  A    between atoms: _4  and  _21
REMARK    3  A    between atoms: _12  and  _21
REMARK    4  A    between atoms: _16  and  _22
REMARK    5  A    between atoms: _19  and  _20
REMARK                            x       y       z     vdW  Elec       q    Type
REMARK                         _______ _______ _______ _____ _____    ______ ____
ROOT
ATOM      1  O   UNL     1     -14.683   3.780 -14.759  0.00  0.00    -0.270 OA
ATOM      2  C   UNL     1     -13.680   3.828 -15.468  0.00  0.00    +0.245 C 
ATOM      3  N   UNL     1     -12.740   2.853 -15.342  0.00  0.00    -0.297 N 
ATOM      4  H   UNL     1     -13.016   2.115 -14.707  0.00  0.00    +0.150 HD
ATOM      5  C   UNL     1     -11.692   2.601 -16.296  0.00  0.00    +0.087 C 
ATOM      6  C   UNL     1     -10.644   1.612 -15.725  0.00  0.00    +0.037 C 
ATOM      7  C   UNL     1     -10.730   0.362 -16.599  0.00  0.00    +0.003 C 
ATOM      8  C   UNL     1     -11.171   0.893 -17.949  0.00  0.00    +0.003 C 
ATOM      9  C   UNL     1     -12.232   1.915 -17.571  0.00  0.00    +0.037 C 
ATOM     10  S   UNL     1     -10.881   4.190 -16.646  0.00  0.00    -0.084 S 
ATOM     11  C   UNL     1     -12.295   5.161 -17.105  0.00  0.00    +0.077 C 
ATOM     12  C   UNL     1     -13.478   4.916 -16.480  0.00  0.00    +0.055 C 
ENDROOT
BRANCH  11  13
ATOM     13  N   UNL     1     -12.145   6.238 -17.995  0.00  0.00    -0.309 N 
ATOM     14  H   UNL     1     -12.584   7.095 -17.667  0.00  0.00    +0.153 HD
BRANCH  13  15
ATOM     15  C   UNL     1     -12.168   6.208 -19.413  0.00  0.00    +0.032 A 
ATOM     16  C   UNL     1     -12.815   5.225 -20.169  0.00  0.00    +0.023 A 
ATOM     17  C   UNL     1     -12.777   5.243 -21.564  0.00  0.00    +0.002 A 
ATOM     18  C   UNL     1     -12.077   6.241 -22.229  0.00  0.00    +0.003 A 
ATOM     19  C   UNL     1     -11.395   7.227 -21.508  0.00  0.00    -0.049 A 
ATOM     20  C   UNL     1     -10.664   8.262 -22.308  0.00  0.00    +0.044 C 
ATOM     21  C   UNL     1     -11.435   7.193 -20.104  0.00  0.00    +0.026 A 
ENDBRANCH  13  15
ENDBRANCH  11  13
BRANCH  12  22
ATOM     22  C   UNL     1     -14.627   5.721 -16.766  0.00  0.00    +0.121 C 
BRANCH  22  23
ATOM     23  N   UNL     1     -15.793   6.533 -17.077  0.00  0.00    -0.326 NA
ATOM     24  H   UNL     1     -16.349   6.667 -16.231  0.00  0.00    +0.119 HD
ATOM     25  H   UNL     1     -15.491   7.440 -17.432  0.00  0.00    +0.119 HD
ENDBRANCH  22  23
ENDBRANCH  12  22
TORSDOF 4
ENDMDL
MODEL 7
REMARK VINA RESULT:      -6.6      0.899      1.843
REMARK  Name = min_compound912.pdb
REMARK  5 active torsions:
REMARK  status: ('A' for Active; 'I' for Inactive)
REMARK    1  A    between atoms: _2  and  _19
REMARK    2  A    between atoms: _4  and  _21
REMARK    3  A    between atoms: _12  and  _21
REMARK    4  A    between atoms: _16  and  _22
REMARK    5  A    between atoms: _19  and  _20
REMARK                            x       y       z     vdW  Elec       q    Type
REMARK                         _______ _______ _______ _____ _____    ______ ____
ROOT
ATOM      1  O   UNL     1     -13.079   2.300 -20.408  0.00  0.00    -0.270 OA
ATOM      2  C   UNL     1     -13.090   2.186 -19.184  0.00  0.00    +0.245 C 
ATOM      3  N   UNL     1     -12.432   1.140 -18.616  0.00  0.00    -0.297 N 
ATOM      4  H   UNL     1     -11.912   0.588 -19.286  0.00  0.00    +0.150 HD
ATOM      5  C   UNL     1     -12.094   1.049 -17.220  0.00  0.00    +0.087 C 
ATOM      6  C   UNL     1     -11.596  -0.374 -16.859  0.00  0.00    +0.037 C 
ATOM      7  C   UNL     1     -10.135  -0.212 -16.444  0.00  0.00    +0.003 C 
ATOM      8  C   UNL     1     -10.074   1.191 -15.870  0.00  0.00    +0.003 C 
ATOM      9  C   UNL     1     -10.921   1.986 -16.853  0.00  0.00    +0.037 C 
ATOM     10  S   UNL     1     -13.602   1.410 -16.271  0.00  0.00    -0.084 S 
ATOM     11  C   UNL     1     -14.046   2.973 -16.984  0.00  0.00    +0.077 C 
ATOM     12  C   UNL     1     -13.788   3.179 -18.303  0.00  0.00    +0.055 C 
ENDROOT
BRANCH  11  13
ATOM     13  N   UNL     1     -14.764   3.911 -16.223  0.00  0.00    -0.309 N 
ATOM     14  H   UNL     1     -14.184   4.667 -15.865  0.00  0.00    +0.153 HD
BRANCH  13  15
ATOM     15  C   UNL     1     -15.835   3.671 -15.325  0.00  0.00    +0.032 A 
ATOM     16  C   UNL     1     -15.694   3.587 -13.936  0.00  0.00    +0.023 A 
ATOM     17  C   UNL     1     -16.788   3.324 -13.110  0.00  0.00    +0.002 A 
ATOM     18  C   UNL     1     -18.046   3.126 -13.665  0.00  0.00    +0.003 A 
ATOM     19  C   UNL     1     -18.224   3.177 -15.052  0.00  0.00    -0.049 A 
ATOM     20  C   UNL     1     -19.615   2.949 -15.562  0.00  0.00    +0.044 C 
ATOM     21  C   UNL     1     -17.112   3.435 -15.871  0.00  0.00    +0.026 A 
ENDBRANCH  13  15
ENDBRANCH  11  13
BRANCH  12  22
ATOM     22  C   UNL     1     -14.193   4.398 -18.938  0.00  0.00    +0.121 C 
BRANCH  22  23
ATOM     23  N   UNL     1     -14.605   5.644 -19.565  0.00  0.00    -0.326 NA
ATOM     24  H   UNL     1     -15.582   5.831 -19.340  0.00  0.00    +0.119 HD
ATOM     25  H   UNL     1     -14.025   6.407 -19.217  0.00  0.00    +0.119 HD
ENDBRANCH  22  23
ENDBRANCH  12  22
TORSDOF 4
ENDMDL
MODEL 8
REMARK VINA RESULT:      -6.6      2.547      5.966
REMARK  Name = min_compound912.pdb
REMARK  5 active torsions:
REMARK  status: ('A' for Active; 'I' for Inactive)
REMARK    1  A    between atoms: _2  and  _19
REMARK    2  A    between atoms: _4  and  _21
REMARK    3  A    between atoms: _12  and  _21
REMARK    4  A    between atoms: _16  and  _22
REMARK    5  A    between atoms: _19  and  _20
REMARK                            x       y       z     vdW  Elec       q    Type
REMARK                         _______ _______ _______ _____ _____    ______ ____
ROOT
ATOM      1  O   UNL     1     -16.823   5.389 -16.950  0.00  0.00    -0.270 OA
ATOM      2  C   UNL     1     -15.737   4.958 -17.332  0.00  0.00    +0.245 C 
ATOM      3  N   UNL     1     -14.997   5.711 -18.190  0.00  0.00    -0.297 N 
ATOM      4  H   UNL     1     -15.400   6.623 -18.366  0.00  0.00    +0.150 HD
ATOM      5  C   UNL     1     -13.602   5.495 -18.470  0.00  0.00    +0.087 C 
ATOM      6  C   UNL     1     -13.138   6.346 -19.679  0.00  0.00    +0.037 C 
ATOM      7  C   UNL     1     -12.115   7.336 -19.126  0.00  0.00    +0.003 C 
ATOM      8  C   UNL     1     -11.496   6.599 -17.953  0.00  0.00    +0.003 C 
ATOM      9  C   UNL     1     -12.706   5.950 -17.297  0.00  0.00    +0.037 C 
ATOM     10  S   UNL     1     -13.393   3.733 -18.869  0.00  0.00    -0.084 S 
ATOM     11  C   UNL     1     -14.141   3.004 -17.433  0.00  0.00    +0.077 C 
ATOM     12  C   UNL     1     -15.199   3.639 -16.862  0.00  0.00    +0.055 C 
ENDROOT
BRANCH  11  13
ATOM     13  N   UNL     1     -13.722   1.737 -16.993  0.00  0.00    -0.309 N 
ATOM     14  H   UNL     1     -14.401   1.275 -16.392  0.00  0.00    +0.153 HD
BRANCH  13  15
ATOM     15  C   UNL     1     -12.414   1.327 -16.631  0.00  0.00    +0.032 A 
ATOM     16  C   UNL     1     -11.638   1.951 -15.648  0.00  0.00    +0.023 A 
ATOM     17  C   UNL     1     -10.345   1.511 -15.357  0.00  0.00    +0.002 A 
ATOM     18  C   UNL     1      -9.800   0.442 -16.057  0.00  0.00    +0.003 A 
ATOM     19  C   UNL     1     -10.535  -0.192 -17.064  0.00  0.00    -0.049 A 
ATOM     20  C   UNL     1      -9.867  -1.334 -17.769  0.00  0.00    +0.044 C 
ATOM     21  C   UNL     1     -11.831   0.267 -17.352  0.00  0.00    +0.026 A 
ENDBRANCH  13  15
ENDBRANCH  11  13
BRANCH  12  22
ATOM     22  C   UNL     1     -15.878   3.052 -15.746  0.00  0.00    +0.121 C 
BRANCH  22  23
ATOM     23  N   UNL     1     -16.550   2.456 -14.602  0.00  0.00    -0.326 NA
ATOM     24  H   UNL     1     -16.920   3.194 -14.002  0.00  0.00    +0.119 HD
ATOM     25  H   UNL     1     -17.317   1.867 -14.927  0.00  0.00    +0.119 HD
ENDBRANCH  22  23
ENDBRANCH  12  22
TORSDOF 4
ENDMDL
MODEL 9
REMARK VINA RESULT:      -6.5      2.104      5.872
REMARK  Name = min_compound912.pdb
REMARK  5 active torsions:
REMARK  status: ('A' for Active; 'I' for Inactive)
REMARK    1  A    between atoms: _2  and  _19
REMARK    2  A    between atoms: _4  and  _21
REMARK    3  A    between atoms: _12  and  _21
REMARK    4  A    between atoms: _16  and  _22
REMARK    5  A    between atoms: _19  and  _20
REMARK                            x       y       z     vdW  Elec       q    Type
REMARK                         _______ _______ _______ _____ _____    ______ ____
ROOT
ATOM      1  O   UNL     1     -14.993   7.209 -17.086  0.00  0.00    -0.270 OA
ATOM      2  C   UNL     1     -14.688   6.106 -16.635  0.00  0.00    +0.245 C 
ATOM      3  N   UNL     1     -15.263   5.689 -15.475  0.00  0.00    -0.297 N 
ATOM      4  H   UNL     1     -15.973   6.324 -15.133  0.00  0.00    +0.150 HD
ATOM      5  C   UNL     1     -15.251   4.330 -15.000  0.00  0.00    +0.087 C 
ATOM      6  C   UNL     1     -15.751   4.247 -13.535  0.00  0.00    +0.037 C 
ATOM      7  C   UNL     1     -17.048   3.441 -13.581  0.00  0.00    +0.003 C 
ATOM      8  C   UNL     1     -16.859   2.518 -14.769  0.00  0.00    +0.003 C 
ATOM      9  C   UNL     1     -16.223   3.436 -15.803  0.00  0.00    +0.037 C 
ATOM     10  S   UNL     1     -13.533   3.742 -15.076  0.00  0.00    -0.084 S 
ATOM     11  C   UNL     1     -13.162   4.099 -16.775  0.00  0.00    +0.077 C 
ATOM     12  C   UNL     1     -13.721   5.203 -17.341  0.00  0.00    +0.055 C 
ENDROOT
BRANCH  11  13
ATOM     13  N   UNL     1     -12.210   3.327 -17.461  0.00  0.00    -0.309 N 
ATOM     14  H   UNL     1     -12.179   3.520 -18.459  0.00  0.00    +0.153 HD
BRANCH  13  15
ATOM     15  C   UNL     1     -11.852   1.975 -17.230  0.00  0.00    +0.032 A 
ATOM     16  C   UNL     1     -12.736   0.994 -16.767  0.00  0.00    +0.023 A 
ATOM     17  C   UNL     1     -12.311  -0.315 -16.537  0.00  0.00    +0.002 A 
ATOM     18  C   UNL     1     -10.984  -0.665 -16.755  0.00  0.00    +0.003 A 
ATOM     19  C   UNL     1     -10.064   0.293 -17.194  0.00  0.00    -0.049 A 
ATOM     20  C   UNL     1      -8.654  -0.173 -17.400  0.00  0.00    +0.044 C 
ATOM     21  C   UNL     1     -10.503   1.609 -17.414  0.00  0.00    +0.026 A 
ENDBRANCH  13  15
ENDBRANCH  11  13
BRANCH  12  22
ATOM     22  C   UNL     1     -13.395   5.570 -18.686  0.00  0.00    +0.121 C 
BRANCH  22  23
ATOM     23  N   UNL     1     -13.081   5.935 -20.058  0.00  0.00    -0.326 NA
ATOM     24  H   UNL     1     -13.913   5.824 -20.639  0.00  0.00    +0.119 HD
ATOM     25  H   UNL     1     -12.773   6.907 -20.089  0.00  0.00    +0.119 HD
ENDBRANCH  22  23
ENDBRANCH  12  22
TORSDOF 4
ENDMDL
