MODEL 1
REMARK VINA RESULT:      -7.3      0.000      0.000
REMARK  Name = min_compound969.pdb
REMARK  5 active torsions:
REMARK  status: ('A' for Active; 'I' for Inactive)
REMARK    1  A    between atoms: _2  and  _5
REMARK    2  A    between atoms: _10  and  _16
REMARK    3  A    between atoms: _12  and  _17
REMARK    4  A    between atoms: _14  and  _17
REMARK    5  A    between atoms: _15  and  _19
REMARK                            x       y       z     vdW  Elec       q    Type
REMARK                         _______ _______ _______ _____ _____    ______ ____
ROOT
ATOM      1  N   UNL     1     -14.636  -3.059  -3.117  0.00  0.00    -0.284 N 
ATOM      2  H   UNL     1     -14.263  -3.454  -3.974  0.00  0.00    +0.155 HD
ATOM      3  C   UNL     1     -14.270  -3.638  -1.923  0.00  0.00    +0.229 C 
ATOM      4  O   UNL     1     -14.375  -2.946  -0.892  0.00  0.00    -0.275 OA
ENDROOT
BRANCH   1   7
ATOM      5  C   UNL     1     -14.913   0.809  -3.505  0.00  0.00    +0.057 A 
ATOM      6  C   UNL     1     -14.379  -0.522  -3.354  0.00  0.00    +0.037 A 
ATOM      7  C   UNL     1     -15.175  -1.702  -3.226  0.00  0.00    +0.052 A 
ATOM      8  C   UNL     1     -16.562  -1.514  -3.212  0.00  0.00    +0.062 A 
ATOM      9 CL   UNL     1     -17.639  -2.861  -3.058  0.00  0.00    -0.082 Cl
ATOM     10  C   UNL     1     -17.119  -0.231  -3.355  0.00  0.00    +0.022 A 
ATOM     11  C   UNL     1     -16.310   0.912  -3.497  0.00  0.00    +0.014 A 
BRANCH   5  13
ATOM     12  F   UNL     1     -12.914   1.189  -2.889  0.00  0.00    -0.166 F 
ATOM     13  C   UNL     1     -13.942   1.952  -3.525  0.00  0.00    +0.417 C 
ATOM     14  F   UNL     1     -13.681   1.780  -4.919  0.00  0.00    -0.166 F 
ATOM     15  F   UNL     1     -12.971   3.095  -3.546  0.00  0.00    -0.166 F 
ENDBRANCH   5  13
ENDBRANCH   1   7
BRANCH   3  16
ATOM     16  C   UNL     1     -13.578  -4.963  -1.807  0.00  0.00    +0.224 C 
BRANCH  16  17
ATOM     17  C   UNL     1     -12.648  -4.666  -0.561  0.00  0.00    +0.282 C 
ATOM     18  N   UNL     1     -11.665  -3.705  -0.684  0.00  0.00    -0.288 N 
ATOM     19  H   UNL     1     -12.049  -2.837  -1.062  0.00  0.00    +0.301 HD
ATOM     20  H   UNL     1     -11.269  -3.531   0.238  0.00  0.00    +0.301 HD
ATOM     21  N   UNL     1     -12.826  -5.383   0.511  0.00  0.00    -0.136 N 
ATOM     22  H   UNL     1     -13.505  -6.089   0.610  0.00  0.00    +0.348 HD
BRANCH  21  23
ATOM     23  O   UNL     1     -11.909  -5.004   1.507  0.00  0.00    -0.210 OA
ATOM     24  H   UNL     1     -11.753  -4.064   1.296  0.00  0.00    +0.271 HD
ENDBRANCH  21  23
ENDBRANCH  16  17
ENDBRANCH   3  16
TORSDOF 5
ENDMDL
MODEL 2
REMARK VINA RESULT:      -6.9      6.318      8.496
REMARK  Name = min_compound969.pdb
REMARK  5 active torsions:
REMARK  status: ('A' for Active; 'I' for Inactive)
REMARK    1  A    between atoms: _2  and  _5
REMARK    2  A    between atoms: _10  and  _16
REMARK    3  A    between atoms: _12  and  _17
REMARK    4  A    between atoms: _14  and  _17
REMARK    5  A    between atoms: _15  and  _19
REMARK                            x       y       z     vdW  Elec       q    Type
REMARK                         _______ _______ _______ _____ _____    ______ ____
ROOT
ATOM      1  N   UNL     1     -17.168   1.670  -7.643  0.00  0.00    -0.284 N 
ATOM      2  H   UNL     1     -18.076   1.734  -7.193  0.00  0.00    +0.155 HD
ATOM      3  C   UNL     1     -16.927   2.469  -8.737  0.00  0.00    +0.229 C 
ATOM      4  O   UNL     1     -15.738   2.700  -9.030  0.00  0.00    -0.275 OA
ENDROOT
BRANCH   1   7
ATOM      5  C   UNL     1     -14.354   1.099  -5.007  0.00  0.00    +0.057 A 
ATOM      6  C   UNL     1     -15.367   1.722  -5.822  0.00  0.00    +0.037 A 
ATOM      7  C   UNL     1     -16.108   1.052  -6.844  0.00  0.00    +0.052 A 
ATOM      8  C   UNL     1     -15.776  -0.290  -7.069  0.00  0.00    +0.062 A 
ATOM      9 CL   UNL     1     -16.595  -1.216  -8.280  0.00  0.00    -0.082 Cl
ATOM     10  C   UNL     1     -14.793  -0.930  -6.295  0.00  0.00    +0.022 A 
ATOM     11  C   UNL     1     -14.091  -0.248  -5.283  0.00  0.00    +0.014 A 
BRANCH   5  13
ATOM     12  F   UNL     1     -14.790   2.586  -3.551  0.00  0.00    -0.166 F 
ATOM     13  C   UNL     1     -13.599   1.969  -4.047  0.00  0.00    +0.417 C 
ATOM     14  F   UNL     1     -13.378   0.883  -3.147  0.00  0.00    -0.166 F 
ATOM     15  F   UNL     1     -12.843   2.840  -3.087  0.00  0.00    -0.166 F 
ENDBRANCH   5  13
ENDBRANCH   1   7
BRANCH   3  16
ATOM     16  C   UNL     1     -17.988   3.231  -9.474  0.00  0.00    +0.224 C 
BRANCH  16  17
ATOM     17  C   UNL     1     -17.271   4.636  -9.588  0.00  0.00    +0.282 C 
ATOM     18  N   UNL     1     -16.884   5.082 -10.837  0.00  0.00    -0.288 N 
ATOM     19  H   UNL     1     -17.655   5.015 -11.502  0.00  0.00    +0.301 HD
ATOM     20  H   UNL     1     -16.586   6.051 -10.753  0.00  0.00    +0.301 HD
ATOM     21  N   UNL     1     -17.036   5.287  -8.486  0.00  0.00    -0.136 N 
ATOM     22  H   UNL     1     -17.282   4.975  -7.585  0.00  0.00    +0.348 HD
BRANCH  21  23
ATOM     23  O   UNL     1     -16.379   6.498  -8.766  0.00  0.00    -0.210 OA
ATOM     24  H   UNL     1     -17.001   7.158  -8.407  0.00  0.00    +0.271 HD
ENDBRANCH  21  23
ENDBRANCH  16  17
ENDBRANCH   3  16
TORSDOF 5
ENDMDL
MODEL 3
REMARK VINA RESULT:      -6.6     15.780     17.495
REMARK  Name = min_compound969.pdb
REMARK  5 active torsions:
REMARK  status: ('A' for Active; 'I' for Inactive)
REMARK    1  A    between atoms: _2  and  _5
REMARK    2  A    between atoms: _10  and  _16
REMARK    3  A    between atoms: _12  and  _17
REMARK    4  A    between atoms: _14  and  _17
REMARK    5  A    between atoms: _15  and  _19
REMARK                            x       y       z     vdW  Elec       q    Type
REMARK                         _______ _______ _______ _____ _____    ______ ____
ROOT
ATOM      1  N   UNL     1     -12.946   3.712 -19.046  0.00  0.00    -0.284 N 
ATOM      2  H   UNL     1     -12.466   3.817 -19.935  0.00  0.00    +0.155 HD
ATOM      3  C   UNL     1     -14.305   3.500 -19.064  0.00  0.00    +0.229 C 
ATOM      4  O   UNL     1     -14.819   2.976 -18.057  0.00  0.00    -0.275 OA
ENDROOT
BRANCH   1   7
ATOM      5  C   UNL     1     -10.767   1.780 -16.457  0.00  0.00    +0.057 A 
ATOM      6  C   UNL     1     -11.642   2.083 -17.562  0.00  0.00    +0.037 A 
ATOM      7  C   UNL     1     -12.093   3.396 -17.899  0.00  0.00    +0.052 A 
ATOM      8  C   UNL     1     -11.669   4.430 -17.057  0.00  0.00    +0.062 A 
ATOM      9 CL   UNL     1     -12.148   6.068 -17.350  0.00  0.00    -0.082 Cl
ATOM     10  C   UNL     1     -10.816   4.173 -15.969  0.00  0.00    +0.022 A 
ATOM     11  C   UNL     1     -10.374   2.870 -15.671  0.00  0.00    +0.014 A 
BRANCH   5  13
ATOM     12  F   UNL     1      -9.287   0.347 -16.984  0.00  0.00    -0.166 F 
ATOM     13  C   UNL     1     -10.469   0.336 -16.179  0.00  0.00    +0.417 C 
ATOM     14  F   UNL     1      -9.989   0.629 -14.866  0.00  0.00    -0.166 F 
ATOM     15  F   UNL     1     -10.170  -1.107 -15.901  0.00  0.00    -0.166 F 
ENDBRANCH   5  13
ENDBRANCH   1   7
BRANCH   3  16
ATOM     16  C   UNL     1     -15.170   3.675 -20.278  0.00  0.00    +0.224 C 
BRANCH  16  17
ATOM     17  C   UNL     1     -14.381   2.757 -21.296  0.00  0.00    +0.282 C 
ATOM     18  N   UNL     1     -13.993   3.293 -22.508  0.00  0.00    -0.288 N 
ATOM     19  H   UNL     1     -13.508   4.182 -22.374  0.00  0.00    +0.301 HD
ATOM     20  H   UNL     1     -13.373   2.630 -22.969  0.00  0.00    +0.301 HD
ATOM     21  N   UNL     1     -14.178   1.516 -20.959  0.00  0.00    -0.136 N 
ATOM     22  H   UNL     1     -14.467   1.108 -20.111  0.00  0.00    +0.348 HD
BRANCH  21  23
ATOM     23  O   UNL     1     -13.485   0.841 -21.980  0.00  0.00    -0.210 OA
ATOM     24  H   UNL     1     -12.557   1.066 -21.783  0.00  0.00    +0.271 HD
ENDBRANCH  21  23
ENDBRANCH  16  17
ENDBRANCH   3  16
TORSDOF 5
ENDMDL
MODEL 4
REMARK VINA RESULT:      -6.5      3.277      4.061
REMARK  Name = min_compound969.pdb
REMARK  5 active torsions:
REMARK  status: ('A' for Active; 'I' for Inactive)
REMARK    1  A    between atoms: _2  and  _5
REMARK    2  A    between atoms: _10  and  _16
REMARK    3  A    between atoms: _12  and  _17
REMARK    4  A    between atoms: _14  and  _17
REMARK    5  A    between atoms: _15  and  _19
REMARK                            x       y       z     vdW  Elec       q    Type
REMARK                         _______ _______ _______ _____ _____    ______ ____
ROOT
ATOM      1  N   UNL     1     -15.364  -0.912  -2.837  0.00  0.00    -0.284 N 
ATOM      2  H   UNL     1     -16.049  -0.511  -2.204  0.00  0.00    +0.155 HD
ATOM      3  C   UNL     1     -14.881  -2.170  -2.557  0.00  0.00    +0.229 C 
ATOM      4  O   UNL     1     -14.383  -2.817  -3.499  0.00  0.00    -0.275 OA
ENDROOT
BRANCH   1   7
ATOM      5  C   UNL     1     -16.133   0.100  -6.521  0.00  0.00    +0.057 A 
ATOM      6  C   UNL     1     -16.190  -0.546  -5.233  0.00  0.00    +0.037 A 
ATOM      7  C   UNL     1     -15.283  -0.290  -4.159  0.00  0.00    +0.052 A 
ATOM      8  C   UNL     1     -14.258   0.628  -4.422  0.00  0.00    +0.062 A 
ATOM      9 CL   UNL     1     -13.090   1.025  -3.208  0.00  0.00    -0.082 Cl
ATOM     10  C   UNL     1     -14.170   1.277  -5.666  0.00  0.00    +0.022 A 
ATOM     11  C   UNL     1     -15.090   1.017  -6.699  0.00  0.00    +0.014 A 
BRANCH   5  13
ATOM     12  F   UNL     1     -16.494   0.452  -8.587  0.00  0.00    -0.166 F 
ATOM     13  C   UNL     1     -17.100  -0.356  -7.573  0.00  0.00    +0.417 C 
ATOM     14  F   UNL     1     -16.445  -1.618  -7.708  0.00  0.00    -0.166 F 
ATOM     15  F   UNL     1     -18.066  -0.812  -8.626  0.00  0.00    -0.166 F 
ENDBRANCH   5  13
ENDBRANCH   1   7
BRANCH   3  16
ATOM     16  C   UNL     1     -15.090  -2.882  -1.254  0.00  0.00    +0.224 C 
BRANCH  16  17
ATOM     17  C   UNL     1     -13.696  -3.621  -1.132  0.00  0.00    +0.282 C 
ATOM     18  N   UNL     1     -13.668  -4.999  -1.206  0.00  0.00    -0.288 N 
ATOM     19  H   UNL     1     -14.180  -5.330  -2.026  0.00  0.00    +0.301 HD
ATOM     20  H   UNL     1     -12.697  -5.298  -1.266  0.00  0.00    +0.301 HD
ATOM     21  N   UNL     1     -12.641  -2.889  -0.915  0.00  0.00    -0.136 N 
ATOM     22  H   UNL     1     -12.643  -1.908  -0.835  0.00  0.00    +0.348 HD
BRANCH  21  23
ATOM     23  O   UNL     1     -11.498  -3.702  -0.814  0.00  0.00    -0.210 OA
ATOM     24  H   UNL     1     -11.404  -4.040  -1.724  0.00  0.00    +0.271 HD
ENDBRANCH  21  23
ENDBRANCH  16  17
ENDBRANCH   3  16
TORSDOF 5
ENDMDL
MODEL 5
REMARK VINA RESULT:      -6.5     15.656     17.384
REMARK  Name = min_compound969.pdb
REMARK  5 active torsions:
REMARK  status: ('A' for Active; 'I' for Inactive)
REMARK    1  A    between atoms: _2  and  _5
REMARK    2  A    between atoms: _10  and  _16
REMARK    3  A    between atoms: _12  and  _17
REMARK    4  A    between atoms: _14  and  _17
REMARK    5  A    between atoms: _15  and  _19
REMARK                            x       y       z     vdW  Elec       q    Type
REMARK                         _______ _______ _______ _____ _____    ______ ____
ROOT
ATOM      1  N   UNL     1     -13.951   2.627 -17.870  0.00  0.00    -0.284 N 
ATOM      2  H   UNL     1     -14.823   2.483 -17.371  0.00  0.00    +0.155 HD
ATOM      3  C   UNL     1     -13.920   3.580 -18.862  0.00  0.00    +0.229 C 
ATOM      4  O   UNL     1     -12.808   4.042 -19.182  0.00  0.00    -0.275 OA
ENDROOT
BRANCH   1   7
ATOM      5  C   UNL     1     -10.734   0.565 -17.100  0.00  0.00    +0.057 A 
ATOM      6  C   UNL     1     -11.939   1.048 -17.728  0.00  0.00    +0.037 A 
ATOM      7  C   UNL     1     -12.751   2.105 -17.213  0.00  0.00    +0.052 A 
ATOM      8  C   UNL     1     -12.341   2.662 -15.995  0.00  0.00    +0.062 A 
ATOM      9 CL   UNL     1     -13.238   3.947 -15.260  0.00  0.00    -0.082 Cl
ATOM     10  C   UNL     1     -11.172   2.216 -15.354  0.00  0.00    +0.022 A 
ATOM     11  C   UNL     1     -10.382   1.184 -15.894  0.00  0.00    +0.014 A 
BRANCH   5  13
ATOM     12  F   UNL     1      -8.766   0.003 -17.677  0.00  0.00    -0.166 F 
ATOM     13  C   UNL     1     -10.053  -0.620 -17.718  0.00  0.00    +0.417 C 
ATOM     14  F   UNL     1     -10.111  -1.361 -16.498  0.00  0.00    -0.166 F 
ATOM     15  F   UNL     1      -9.371  -1.805 -18.335  0.00  0.00    -0.166 F 
ENDBRANCH   5  13
ENDBRANCH   1   7
BRANCH   3  16
ATOM     16  C   UNL     1     -15.140   4.235 -19.439  0.00  0.00    +0.224 C 
BRANCH  16  17
ATOM     17  C   UNL     1     -15.501   3.179 -20.560  0.00  0.00    +0.282 C 
ATOM     18  N   UNL     1     -16.728   3.270 -21.185  0.00  0.00    -0.288 N 
ATOM     19  H   UNL     1     -16.898   4.221 -21.518  0.00  0.00    +0.301 HD
ATOM     20  H   UNL     1     -16.736   2.625 -21.972  0.00  0.00    +0.301 HD
ATOM     21  N   UNL     1     -14.635   2.239 -20.806  0.00  0.00    -0.136 N 
ATOM     22  H   UNL     1     -13.765   2.142 -20.354  0.00  0.00    +0.348 HD
BRANCH  21  23
ATOM     23  O   UNL     1     -15.120   1.380 -21.808  0.00  0.00    -0.210 OA
ATOM     24  H   UNL     1     -14.399   1.403 -22.465  0.00  0.00    +0.271 HD
ENDBRANCH  21  23
ENDBRANCH  16  17
ENDBRANCH   3  16
TORSDOF 5
ENDMDL
MODEL 6
REMARK VINA RESULT:      -6.5     14.608     15.861
REMARK  Name = min_compound969.pdb
REMARK  5 active torsions:
REMARK  status: ('A' for Active; 'I' for Inactive)
REMARK    1  A    between atoms: _2  and  _5
REMARK    2  A    between atoms: _10  and  _16
REMARK    3  A    between atoms: _12  and  _17
REMARK    4  A    between atoms: _14  and  _17
REMARK    5  A    between atoms: _15  and  _19
REMARK                            x       y       z     vdW  Elec       q    Type
REMARK                         _______ _______ _______ _____ _____    ______ ____
ROOT
ATOM      1  N   UNL     1     -14.249   4.227 -16.715  0.00  0.00    -0.284 N 
ATOM      2  H   UNL     1     -14.832   4.148 -17.542  0.00  0.00    +0.155 HD
ATOM      3  C   UNL     1     -14.842   4.622 -15.537  0.00  0.00    +0.229 C 
ATOM      4  O   UNL     1     -14.260   4.333 -14.474  0.00  0.00    -0.275 OA
ENDROOT
BRANCH   1   7
ATOM      5  C   UNL     1     -11.528   1.437 -16.683  0.00  0.00    +0.057 A 
ATOM      6  C   UNL     1     -12.790   2.126 -16.578  0.00  0.00    +0.037 A 
ATOM      7  C   UNL     1     -12.963   3.531 -16.778  0.00  0.00    +0.052 A 
ATOM      8  C   UNL     1     -11.802   4.263 -17.056  0.00  0.00    +0.062 A 
ATOM      9 CL   UNL     1     -11.872   5.973 -17.316  0.00  0.00    -0.082 Cl
ATOM     10  C   UNL     1     -10.554   3.625 -17.166  0.00  0.00    +0.022 A 
ATOM     11  C   UNL     1     -10.418   2.236 -16.980  0.00  0.00    +0.014 A 
BRANCH   5  13
ATOM     12  F   UNL     1     -11.082  -0.400 -17.658  0.00  0.00    -0.166 F 
ATOM     13  C   UNL     1     -11.501  -0.024 -16.343  0.00  0.00    +0.417 C 
ATOM     14  F   UNL     1     -10.277   0.108 -15.620  0.00  0.00    -0.166 F 
ATOM     15  F   UNL     1     -11.475  -1.485 -16.004  0.00  0.00    -0.166 F 
ENDBRANCH   5  13
ENDBRANCH   1   7
BRANCH   3  16
ATOM     16  C   UNL     1     -16.224   5.197 -15.442  0.00  0.00    +0.224 C 
BRANCH  16  17
ATOM     17  C   UNL     1     -15.951   6.370 -14.415  0.00  0.00    +0.282 C 
ATOM     18  N   UNL     1     -16.338   6.201 -13.101  0.00  0.00    -0.288 N 
ATOM     19  H   UNL     1     -15.997   5.312 -12.732  0.00  0.00    +0.301 HD
ATOM     20  H   UNL     1     -15.955   6.969 -12.553  0.00  0.00    +0.301 HD
ATOM     21  N   UNL     1     -15.415   7.463 -14.875  0.00  0.00    -0.136 N 
ATOM     22  H   UNL     1     -15.155   7.612 -15.813  0.00  0.00    +0.348 HD
BRANCH  21  23
ATOM     23  O   UNL     1     -15.261   8.402 -13.840  0.00  0.00    -0.210 OA
ATOM     24  H   UNL     1     -14.422   8.121 -13.430  0.00  0.00    +0.271 HD
ENDBRANCH  21  23
ENDBRANCH  16  17
ENDBRANCH   3  16
TORSDOF 5
ENDMDL
MODEL 7
REMARK VINA RESULT:      -6.4      1.989      2.291
REMARK  Name = min_compound969.pdb
REMARK  5 active torsions:
REMARK  status: ('A' for Active; 'I' for Inactive)
REMARK    1  A    between atoms: _2  and  _5
REMARK    2  A    between atoms: _10  and  _16
REMARK    3  A    between atoms: _12  and  _17
REMARK    4  A    between atoms: _14  and  _17
REMARK    5  A    between atoms: _15  and  _19
REMARK                            x       y       z     vdW  Elec       q    Type
REMARK                         _______ _______ _______ _____ _____    ______ ____
ROOT
ATOM      1  N   UNL     1     -14.289  -2.922  -1.242  0.00  0.00    -0.284 N 
ATOM      2  H   UNL     1     -14.481  -2.957  -0.246  0.00  0.00    +0.155 HD
ATOM      3  C   UNL     1     -13.835  -4.066  -1.857  0.00  0.00    +0.229 C 
ATOM      4  O   UNL     1     -13.987  -4.156  -3.090  0.00  0.00    -0.275 OA
ENDROOT
BRANCH   1   7
ATOM      5  C   UNL     1     -14.767   0.409  -3.208  0.00  0.00    +0.057 A 
ATOM      6  C   UNL     1     -14.175  -0.671  -2.459  0.00  0.00    +0.037 A 
ATOM      7  C   UNL     1     -14.895  -1.802  -1.965  0.00  0.00    +0.052 A 
ATOM      8  C   UNL     1     -16.273  -1.812  -2.209  0.00  0.00    +0.062 A 
ATOM      9 CL   UNL     1     -17.263  -3.122  -1.661  0.00  0.00    -0.082 Cl
ATOM     10  C   UNL     1     -16.886  -0.775  -2.935  0.00  0.00    +0.022 A 
ATOM     11  C   UNL     1     -16.147   0.319  -3.424  0.00  0.00    +0.014 A 
BRANCH   5  13
ATOM     12  F   UNL     1     -12.789   1.075  -2.802  0.00  0.00    -0.166 F 
ATOM     13  C   UNL     1     -13.890   1.572  -3.566  0.00  0.00    +0.417 C 
ATOM     14  F   UNL     1     -13.651   1.061  -4.879  0.00  0.00    -0.166 F 
ATOM     15  F   UNL     1     -13.013   2.735  -3.925  0.00  0.00    -0.166 F 
ENDBRANCH   5  13
ENDBRANCH   1   7
BRANCH   3  16
ATOM     16  C   UNL     1     -13.352  -5.282  -1.123  0.00  0.00    +0.224 C 
BRANCH  16  17
ATOM     17  C   UNL     1     -14.012  -6.408  -2.016  0.00  0.00    +0.282 C 
ATOM     18  N   UNL     1     -13.188  -7.260  -2.724  0.00  0.00    -0.288 N 
ATOM     19  H   UNL     1     -12.468  -7.657  -2.118  0.00  0.00    +0.301 HD
ATOM     20  H   UNL     1     -13.758  -8.008  -3.114  0.00  0.00    +0.301 HD
ATOM     21  N   UNL     1     -15.312  -6.446  -2.080  0.00  0.00    -0.136 N 
ATOM     22  H   UNL     1     -15.917  -5.832  -1.603  0.00  0.00    +0.348 HD
BRANCH  21  23
ATOM     23  O   UNL     1     -15.728  -7.487  -2.928  0.00  0.00    -0.210 OA
ATOM     24  H   UNL     1     -16.492  -7.854  -2.444  0.00  0.00    +0.271 HD
ENDBRANCH  21  23
ENDBRANCH  16  17
ENDBRANCH   3  16
TORSDOF 5
ENDMDL
MODEL 8
REMARK VINA RESULT:      -6.3     13.498     14.975
REMARK  Name = min_compound969.pdb
REMARK  5 active torsions:
REMARK  status: ('A' for Active; 'I' for Inactive)
REMARK    1  A    between atoms: _2  and  _5
REMARK    2  A    between atoms: _10  and  _16
REMARK    3  A    between atoms: _12  and  _17
REMARK    4  A    between atoms: _14  and  _17
REMARK    5  A    between atoms: _15  and  _19
REMARK                            x       y       z     vdW  Elec       q    Type
REMARK                         _______ _______ _______ _____ _____    ______ ____
ROOT
ATOM      1  N   UNL     1     -14.412   2.692 -16.613  0.00  0.00    -0.284 N 
ATOM      2  H   UNL     1     -14.857   2.123 -17.326  0.00  0.00    +0.155 HD
ATOM      3  C   UNL     1     -15.172   3.099 -15.539  0.00  0.00    +0.229 C 
ATOM      4  O   UNL     1     -14.569   3.426 -14.499  0.00  0.00    -0.275 OA
ENDROOT
BRANCH   1   7
ATOM      5  C   UNL     1     -10.717   1.477 -16.377  0.00  0.00    +0.057 A 
ATOM      6  C   UNL     1     -12.158   1.507 -16.342  0.00  0.00    +0.037 A 
ATOM      7  C   UNL     1     -12.948   2.668 -16.605  0.00  0.00    +0.052 A 
ATOM      8  C   UNL     1     -12.244   3.848 -16.873  0.00  0.00    +0.062 A 
ATOM      9 CL   UNL     1     -13.081   5.327 -17.203  0.00  0.00    -0.082 Cl
ATOM     10  C   UNL     1     -10.838   3.857 -16.914  0.00  0.00    +0.022 A 
ATOM     11  C   UNL     1     -10.086   2.692 -16.669  0.00  0.00    +0.014 A 
BRANCH   5  13
ATOM     12  F   UNL     1     -11.161  -0.603 -16.346  0.00  0.00    -0.166 F 
ATOM     13  C   UNL     1     -10.036   0.201 -15.978  0.00  0.00    +0.417 C 
ATOM     14  F   UNL     1      -9.221   0.202 -17.151  0.00  0.00    -0.166 F 
ATOM     15  F   UNL     1      -9.356  -1.075 -15.580  0.00  0.00    -0.166 F 
ENDBRANCH   5  13
ENDBRANCH   1   7
BRANCH   3  16
ATOM     16  C   UNL     1     -16.666   2.987 -15.474  0.00  0.00    +0.224 C 
BRANCH  16  17
ATOM     17  C   UNL     1     -16.905   3.513 -14.002  0.00  0.00    +0.282 C 
ATOM     18  N   UNL     1     -16.882   4.875 -13.773  0.00  0.00    -0.288 N 
ATOM     19  H   UNL     1     -17.487   5.365 -14.434  0.00  0.00    +0.301 HD
ATOM     20  H   UNL     1     -17.203   5.046 -12.822  0.00  0.00    +0.301 HD
ATOM     21  N   UNL     1     -17.065   2.627 -13.061  0.00  0.00    -0.136 N 
ATOM     22  H   UNL     1     -17.060   1.652 -13.200  0.00  0.00    +0.348 HD
BRANCH  21  23
ATOM     23  O   UNL     1     -17.244   3.262 -11.820  0.00  0.00    -0.210 OA
ATOM     24  H   UNL     1     -16.799   4.119 -11.960  0.00  0.00    +0.271 HD
ENDBRANCH  21  23
ENDBRANCH  16  17
ENDBRANCH   3  16
TORSDOF 5
ENDMDL
MODEL 9
REMARK VINA RESULT:      -6.3      1.730      1.986
REMARK  Name = min_compound969.pdb
REMARK  5 active torsions:
REMARK  status: ('A' for Active; 'I' for Inactive)
REMARK    1  A    between atoms: _2  and  _5
REMARK    2  A    between atoms: _10  and  _16
REMARK    3  A    between atoms: _12  and  _17
REMARK    4  A    between atoms: _14  and  _17
REMARK    5  A    between atoms: _15  and  _19
REMARK                            x       y       z     vdW  Elec       q    Type
REMARK                         _______ _______ _______ _____ _____    ______ ____
ROOT
ATOM      1  N   UNL     1     -15.003  -3.301  -3.080  0.00  0.00    -0.284 N 
ATOM      2  H   UNL     1     -15.265  -4.004  -3.764  0.00  0.00    +0.155 HD
ATOM      3  C   UNL     1     -14.092  -3.649  -2.108  0.00  0.00    +0.229 C 
ATOM      4  O   UNL     1     -13.473  -2.727  -1.545  0.00  0.00    -0.275 OA
ENDROOT
BRANCH   1   7
ATOM      5  C   UNL     1     -15.121   0.098  -4.982  0.00  0.00    +0.057 A 
ATOM      6  C   UNL     1     -14.788  -1.252  -4.600  0.00  0.00    +0.037 A 
ATOM      7  C   UNL     1     -15.306  -1.917  -3.446  0.00  0.00    +0.052 A 
ATOM      8  C   UNL     1     -16.162  -1.165  -2.633  0.00  0.00    +0.062 A 
ATOM      9 CL   UNL     1     -16.855  -1.850  -1.202  0.00  0.00    -0.082 Cl
ATOM     10  C   UNL     1     -16.509   0.154  -2.972  0.00  0.00    +0.022 A 
ATOM     11  C   UNL     1     -15.996   0.778  -4.126  0.00  0.00    +0.014 A 
BRANCH   5  13
ATOM     12  F   UNL     1     -13.318  -0.231  -6.060  0.00  0.00    -0.166 F 
ATOM     13  C   UNL     1     -14.413   0.683  -6.168  0.00  0.00    +0.417 C 
ATOM     14  F   UNL     1     -15.300   0.043  -7.086  0.00  0.00    -0.166 F 
ATOM     15  F   UNL     1     -13.704   1.267  -7.354  0.00  0.00    -0.166 F 
ENDBRANCH   5  13
ENDBRANCH   1   7
BRANCH   3  16
ATOM     16  C   UNL     1     -13.659  -5.057  -1.825  0.00  0.00    +0.224 C 
BRANCH  16  17
ATOM     17  C   UNL     1     -12.997  -4.847  -0.404  0.00  0.00    +0.282 C 
ATOM     18  N   UNL     1     -13.807  -4.874   0.714  0.00  0.00    -0.288 N 
ATOM     19  H   UNL     1     -14.402  -5.704   0.713  0.00  0.00    +0.301 HD
ATOM     20  H   UNL     1     -13.213  -4.880   1.541  0.00  0.00    +0.301 HD
ATOM     21  N   UNL     1     -11.718  -4.609  -0.362  0.00  0.00    -0.136 N 
ATOM     22  H   UNL     1     -11.128  -4.561  -1.148  0.00  0.00    +0.348 HD
BRANCH  21  23
ATOM     23  O   UNL     1     -11.300  -4.428   0.969  0.00  0.00    -0.210 OA
ATOM     24  H   UNL     1     -11.292  -3.456   1.052  0.00  0.00    +0.271 HD
ENDBRANCH  21  23
ENDBRANCH  16  17
ENDBRANCH   3  16
TORSDOF 5
ENDMDL
