MODEL 1
REMARK VINA RESULT:      -6.4      0.000      0.000
REMARK  Name = min_compound916.pdb
REMARK  6 active torsions:
REMARK  status: ('A' for Active; 'I' for Inactive)
REMARK    1  A    between atoms: _6  and  _7
REMARK    2  A    between atoms: _7  and  _15
REMARK    3  A    between atoms: _8  and  _9
REMARK    4  A    between atoms: _8  and  _18
REMARK    5  A    between atoms: _15  and  _16
REMARK    6  A    between atoms: _17  and  _18
REMARK                            x       y       z     vdW  Elec       q    Type
REMARK                         _______ _______ _______ _____ _____    ______ ____
ROOT
ATOM      1  C   UNL     1     -13.591   3.323 -15.494  0.00  0.00    -0.019 C 
ATOM      2  C   UNL     1     -14.653   2.629 -15.939  0.00  0.00    -0.019 C 
ENDROOT
BRANCH   1   3
ATOM      3  C   UNL     1     -12.334   3.570 -16.272  0.00  0.00    +0.102 C 
BRANCH   3   4
ATOM      4  S   UNL     1     -12.394   2.611 -17.811  0.00  0.00    -0.102 S 
BRANCH   4   8
ATOM      5  C   UNL     1      -9.913  -0.945 -16.544  0.00  0.00    +0.020 A 
ATOM      6  C   UNL     1     -11.282  -0.860 -16.364  0.00  0.00    +0.112 A 
ATOM      7  N   UNL     1     -12.024   0.205 -16.734  0.00  0.00    -0.249 NA
ATOM      8  C   UNL     1     -11.380   1.236 -17.323  0.00  0.00    +0.097 A 
ATOM      9  C   UNL     1     -10.008   1.233 -17.550  0.00  0.00    +0.035 A 
ATOM     10  C   UNL     1      -9.265   0.126 -17.148  0.00  0.00    +0.004 A 
ENDBRANCH   4   8
ENDBRANCH   3   4
ENDBRANCH   1   3
BRANCH   2  11
ATOM     11  C   UNL     1     -15.901   2.428 -15.132  0.00  0.00    +0.102 C 
BRANCH  11  12
ATOM     12  S   UNL     1     -16.619   4.036 -14.704  0.00  0.00    -0.102 S 
BRANCH  12  13
ATOM     13  C   UNL     1     -16.384   3.932 -12.945  0.00  0.00    +0.097 A 
ATOM     14  N   UNL     1     -15.393   4.682 -12.411  0.00  0.00    -0.249 NA
ATOM     15  C   UNL     1     -15.212   4.604 -11.076  0.00  0.00    +0.112 A 
ATOM     16  C   UNL     1     -15.990   3.823 -10.238  0.00  0.00    +0.020 A 
ATOM     17  C   UNL     1     -17.008   3.066 -10.805  0.00  0.00    +0.004 A 
ATOM     18  C   UNL     1     -17.206   3.112 -12.182  0.00  0.00    +0.035 A 
ENDBRANCH  12  13
ENDBRANCH  11  12
ENDBRANCH   2  11
TORSDOF 6
ENDMDL
MODEL 2
REMARK VINA RESULT:      -6.4      1.229      7.371
REMARK  Name = min_compound916.pdb
REMARK  6 active torsions:
REMARK  status: ('A' for Active; 'I' for Inactive)
REMARK    1  A    between atoms: _6  and  _7
REMARK    2  A    between atoms: _7  and  _15
REMARK    3  A    between atoms: _8  and  _9
REMARK    4  A    between atoms: _8  and  _18
REMARK    5  A    between atoms: _15  and  _16
REMARK    6  A    between atoms: _17  and  _18
REMARK                            x       y       z     vdW  Elec       q    Type
REMARK                         _______ _______ _______ _____ _____    ______ ____
ROOT
ATOM      1  C   UNL     1     -14.823   2.541 -15.936  0.00  0.00    -0.019 C 
ATOM      2  C   UNL     1     -13.791   3.328 -15.586  0.00  0.00    -0.019 C 
ENDROOT
BRANCH   1   3
ATOM      3  C   UNL     1     -16.024   2.263 -15.083  0.00  0.00    +0.102 C 
BRANCH   3   4
ATOM      4  S   UNL     1     -16.834   3.835 -14.674  0.00  0.00    -0.102 S 
BRANCH   4   8
ATOM      5  C   UNL     1     -15.905   3.942 -10.255  0.00  0.00    +0.020 A 
ATOM      6  C   UNL     1     -16.933   3.198 -10.806  0.00  0.00    +0.112 A 
ATOM      7  N   UNL     1     -17.218   3.172 -12.125  0.00  0.00    -0.249 NA
ATOM      8  C   UNL     1     -16.438   3.911 -12.944  0.00  0.00    +0.097 A 
ATOM      9  C   UNL     1     -15.380   4.682 -12.478  0.00  0.00    +0.035 A 
ATOM     10  C   UNL     1     -15.115   4.700 -11.111  0.00  0.00    +0.004 A 
ENDBRANCH   4   8
ENDBRANCH   3   4
ENDBRANCH   1   3
BRANCH   2  11
ATOM     11  C   UNL     1     -12.621   3.596 -16.485  0.00  0.00    +0.102 C 
BRANCH  11  12
ATOM     12  S   UNL     1     -11.076   3.323 -15.577  0.00  0.00    -0.102 S 
BRANCH  12  13
ATOM     13  C   UNL     1     -10.762   1.669 -16.147  0.00  0.00    +0.097 A 
ATOM     14  N   UNL     1      -9.985   0.886 -15.364  0.00  0.00    -0.249 NA
ATOM     15  C   UNL     1      -9.744  -0.370 -15.796  0.00  0.00    +0.112 A 
ATOM     16  C   UNL     1     -10.260  -0.894 -16.968  0.00  0.00    +0.020 A 
ATOM     17  C   UNL     1     -11.062  -0.076 -17.754  0.00  0.00    +0.004 A 
ATOM     18  C   UNL     1     -11.313   1.231 -17.344  0.00  0.00    +0.035 A 
ENDBRANCH  12  13
ENDBRANCH  11  12
ENDBRANCH   2  11
TORSDOF 6
ENDMDL
MODEL 3
REMARK VINA RESULT:      -6.4      0.728      7.453
REMARK  Name = min_compound916.pdb
REMARK  6 active torsions:
REMARK  status: ('A' for Active; 'I' for Inactive)
REMARK    1  A    between atoms: _6  and  _7
REMARK    2  A    between atoms: _7  and  _15
REMARK    3  A    between atoms: _8  and  _9
REMARK    4  A    between atoms: _8  and  _18
REMARK    5  A    between atoms: _15  and  _16
REMARK    6  A    between atoms: _17  and  _18
REMARK                            x       y       z     vdW  Elec       q    Type
REMARK                         _______ _______ _______ _____ _____    ______ ____
ROOT
ATOM      1  C   UNL     1     -14.708   2.543 -15.852  0.00  0.00    -0.019 C 
ATOM      2  C   UNL     1     -13.772   3.432 -15.478  0.00  0.00    -0.019 C 
ENDROOT
BRANCH   1   3
ATOM      3  C   UNL     1     -16.019   2.328 -15.160  0.00  0.00    +0.102 C 
BRANCH   3   4
ATOM      4  S   UNL     1     -16.721   3.940 -14.710  0.00  0.00    -0.102 S 
BRANCH   4   8
ATOM      5  C   UNL     1     -15.963   3.875 -10.258  0.00  0.00    +0.020 A 
ATOM      6  C   UNL     1     -15.217   4.621 -11.153  0.00  0.00    +0.112 A 
ATOM      7  N   UNL     1     -15.437   4.635 -12.484  0.00  0.00    -0.249 NA
ATOM      8  C   UNL     1     -16.454   3.880 -12.955  0.00  0.00    +0.097 A 
ATOM      9  C   UNL     1     -17.258   3.105 -12.127  0.00  0.00    +0.035 A 
ATOM     10  C   UNL     1     -17.002   3.100 -10.758  0.00  0.00    +0.004 A 
ENDBRANCH   4   8
ENDBRANCH   3   4
ENDBRANCH   1   3
BRANCH   2  11
ATOM     11  C   UNL     1     -12.482   3.629 -16.218  0.00  0.00    +0.102 C 
BRANCH  11  12
ATOM     12  S   UNL     1     -12.468   2.599 -17.709  0.00  0.00    -0.102 S 
BRANCH  12  13
ATOM     13  C   UNL     1     -11.387   1.326 -17.101  0.00  0.00    +0.097 A 
ATOM     14  N   UNL     1     -11.145   0.280 -17.923  0.00  0.00    -0.249 NA
ATOM     15  C   UNL     1     -10.324  -0.688 -17.462  0.00  0.00    +0.112 A 
ATOM     16  C   UNL     1      -9.714  -0.654 -16.220  0.00  0.00    +0.020 A 
ATOM     17  C   UNL     1      -9.970   0.433 -15.394  0.00  0.00    +0.004 A 
ATOM     18  C   UNL     1     -10.826   1.438 -15.835  0.00  0.00    +0.035 A 
ENDBRANCH  12  13
ENDBRANCH  11  12
ENDBRANCH   2  11
TORSDOF 6
ENDMDL
MODEL 4
REMARK VINA RESULT:      -6.2      7.977     10.801
REMARK  Name = min_compound916.pdb
REMARK  6 active torsions:
REMARK  status: ('A' for Active; 'I' for Inactive)
REMARK    1  A    between atoms: _6  and  _7
REMARK    2  A    between atoms: _7  and  _15
REMARK    3  A    between atoms: _8  and  _9
REMARK    4  A    between atoms: _8  and  _18
REMARK    5  A    between atoms: _15  and  _16
REMARK    6  A    between atoms: _17  and  _18
REMARK                            x       y       z     vdW  Elec       q    Type
REMARK                         _______ _______ _______ _____ _____    ______ ____
ROOT
ATOM      1  C   UNL     1     -18.259   3.212  -5.696  0.00  0.00    -0.019 C 
ATOM      2  C   UNL     1     -17.368   3.532  -6.650  0.00  0.00    -0.019 C 
ENDROOT
BRANCH   1   3
ATOM      3  C   UNL     1     -17.964   3.144  -4.229  0.00  0.00    +0.102 C 
BRANCH   3   4
ATOM      4  S   UNL     1     -17.743   1.407  -3.750  0.00  0.00    -0.102 S 
BRANCH   4   8
ATOM      5  C   UNL     1     -13.246   1.217  -3.380  0.00  0.00    +0.020 A 
ATOM      6  C   UNL     1     -14.081   0.136  -3.161  0.00  0.00    +0.112 A 
ATOM      7  N   UNL     1     -15.425   0.193  -3.262  0.00  0.00    -0.249 NA
ATOM      8  C   UNL     1     -15.973   1.379  -3.610  0.00  0.00    +0.097 A 
ATOM      9  C   UNL     1     -15.210   2.514  -3.854  0.00  0.00    +0.035 A 
ATOM     10  C   UNL     1     -13.825   2.431  -3.731  0.00  0.00    +0.004 A 
ENDBRANCH   4   8
ENDBRANCH   3   4
ENDBRANCH   1   3
BRANCH   2  11
ATOM     11  C   UNL     1     -17.717   3.612  -8.107  0.00  0.00    +0.102 C 
BRANCH  11  12
ATOM     12  S   UNL     1     -16.315   3.044  -9.104  0.00  0.00    -0.102 S 
BRANCH  12  13
ATOM     13  C   UNL     1     -15.978   1.551  -8.200  0.00  0.00    +0.097 A 
ATOM     14  N   UNL     1     -16.922   0.583  -8.238  0.00  0.00    -0.249 NA
ATOM     15  C   UNL     1     -16.669  -0.552  -7.551  0.00  0.00    +0.112 A 
ATOM     16  C   UNL     1     -15.503  -0.777  -6.840  0.00  0.00    +0.020 A 
ATOM     17  C   UNL     1     -14.543   0.227  -6.820  0.00  0.00    +0.004 A 
ATOM     18  C   UNL     1     -14.785   1.415  -7.504  0.00  0.00    +0.035 A 
ENDBRANCH  12  13
ENDBRANCH  11  12
ENDBRANCH   2  11
TORSDOF 6
ENDMDL
MODEL 5
REMARK VINA RESULT:      -6.1      1.374      1.791
REMARK  Name = min_compound916.pdb
REMARK  6 active torsions:
REMARK  status: ('A' for Active; 'I' for Inactive)
REMARK    1  A    between atoms: _6  and  _7
REMARK    2  A    between atoms: _7  and  _15
REMARK    3  A    between atoms: _8  and  _9
REMARK    4  A    between atoms: _8  and  _18
REMARK    5  A    between atoms: _15  and  _16
REMARK    6  A    between atoms: _17  and  _18
REMARK                            x       y       z     vdW  Elec       q    Type
REMARK                         _______ _______ _______ _____ _____    ______ ____
ROOT
ATOM      1  C   UNL     1     -13.319   3.902 -16.216  0.00  0.00    -0.019 C 
ATOM      2  C   UNL     1     -14.393   3.131 -15.973  0.00  0.00    -0.019 C 
ENDROOT
BRANCH   1   3
ATOM      3  C   UNL     1     -12.235   3.586 -17.201  0.00  0.00    +0.102 C 
BRANCH   3   4
ATOM      4  S   UNL     1     -12.720   2.127 -18.165  0.00  0.00    -0.102 S 
BRANCH   4   8
ATOM      5  C   UNL     1      -9.717  -0.793 -16.476  0.00  0.00    +0.020 A 
ATOM      6  C   UNL     1      -9.372   0.303 -17.247  0.00  0.00    +0.112 A 
ATOM      7  N   UNL     1     -10.269   1.171 -17.760  0.00  0.00    -0.249 NA
ATOM      8  C   UNL     1     -11.574   0.951 -17.487  0.00  0.00    +0.097 A 
ATOM      9  C   UNL     1     -12.009  -0.121 -16.716  0.00  0.00    +0.035 A 
ATOM     10  C   UNL     1     -11.063  -1.008 -16.208  0.00  0.00    +0.004 A 
ENDBRANCH   4   8
ENDBRANCH   3   4
ENDBRANCH   1   3
BRANCH   2  11
ATOM     11  C   UNL     1     -15.466   3.501 -14.993  0.00  0.00    +0.102 C 
BRANCH  11  12
ATOM     12  S   UNL     1     -15.561   5.304 -14.841  0.00  0.00    -0.102 S 
BRANCH  12  13
ATOM     13  C   UNL     1     -15.850   5.373 -13.088  0.00  0.00    +0.097 A 
ATOM     14  N   UNL     1     -16.842   6.187 -12.660  0.00  0.00    -0.249 NA
ATOM     15  C   UNL     1     -17.063   6.242 -11.329  0.00  0.00    +0.112 A 
ATOM     16  C   UNL     1     -16.350   5.504 -10.400  0.00  0.00    +0.020 A 
ATOM     17  C   UNL     1     -15.340   4.668 -10.861  0.00  0.00    +0.004 A 
ATOM     18  C   UNL     1     -15.078   4.605 -12.227  0.00  0.00    +0.035 A 
ENDBRANCH  12  13
ENDBRANCH  11  12
ENDBRANCH   2  11
TORSDOF 6
ENDMDL
MODEL 6
REMARK VINA RESULT:      -6.1      1.558      7.845
REMARK  Name = min_compound916.pdb
REMARK  6 active torsions:
REMARK  status: ('A' for Active; 'I' for Inactive)
REMARK    1  A    between atoms: _6  and  _7
REMARK    2  A    between atoms: _7  and  _15
REMARK    3  A    between atoms: _8  and  _9
REMARK    4  A    between atoms: _8  and  _18
REMARK    5  A    between atoms: _15  and  _16
REMARK    6  A    between atoms: _17  and  _18
REMARK                            x       y       z     vdW  Elec       q    Type
REMARK                         _______ _______ _______ _____ _____    ______ ____
ROOT
ATOM      1  C   UNL     1     -14.395   4.473 -15.785  0.00  0.00    -0.019 C 
ATOM      2  C   UNL     1     -14.008   3.417 -16.519  0.00  0.00    -0.019 C 
ENDROOT
BRANCH   1   3
ATOM      3  C   UNL     1     -15.733   4.622 -15.126  0.00  0.00    +0.102 C 
BRANCH   3   4
ATOM      4  S   UNL     1     -15.870   6.295 -14.437  0.00  0.00    -0.102 S 
BRANCH   4   8
ATOM      5  C   UNL     1     -16.274   5.310 -10.048  0.00  0.00    +0.020 A 
ATOM      6  C   UNL     1     -16.974   6.326 -10.674  0.00  0.00    +0.112 A 
ATOM      7  N   UNL     1     -16.848   6.627 -11.984  0.00  0.00    -0.249 NA
ATOM      8  C   UNL     1     -15.994   5.878 -12.715  0.00  0.00    +0.097 A 
ATOM      9  C   UNL     1     -15.255   4.834 -12.168  0.00  0.00    +0.035 A 
ATOM     10  C   UNL     1     -15.396   4.552 -10.812  0.00  0.00    +0.004 A 
ENDBRANCH   4   8
ENDBRANCH   3   4
ENDBRANCH   1   3
BRANCH   2  11
ATOM     11  C   UNL     1     -12.647   3.301 -17.139  0.00  0.00    +0.102 C 
BRANCH  11  12
ATOM     12  S   UNL     1     -12.653   1.992 -18.392  0.00  0.00    -0.102 S 
BRANCH  12  13
ATOM     13  C   UNL     1     -11.527   0.886 -17.575  0.00  0.00    +0.097 A 
ATOM     14  N   UNL     1     -10.205   1.102 -17.766  0.00  0.00    -0.249 NA
ATOM     15  C   UNL     1      -9.348   0.263 -17.147  0.00  0.00    +0.112 A 
ATOM     16  C   UNL     1      -9.747  -0.778 -16.326  0.00  0.00    +0.020 A 
ATOM     17  C   UNL     1     -11.109  -0.979 -16.137  0.00  0.00    +0.004 A 
ATOM     18  C   UNL     1     -12.017  -0.139 -16.777  0.00  0.00    +0.035 A 
ENDBRANCH  12  13
ENDBRANCH  11  12
ENDBRANCH   2  11
TORSDOF 6
ENDMDL
MODEL 7
REMARK VINA RESULT:      -6.1      5.342      9.141
REMARK  Name = min_compound916.pdb
REMARK  6 active torsions:
REMARK  status: ('A' for Active; 'I' for Inactive)
REMARK    1  A    between atoms: _6  and  _7
REMARK    2  A    between atoms: _7  and  _15
REMARK    3  A    between atoms: _8  and  _9
REMARK    4  A    between atoms: _8  and  _18
REMARK    5  A    between atoms: _15  and  _16
REMARK    6  A    between atoms: _17  and  _18
REMARK                            x       y       z     vdW  Elec       q    Type
REMARK                         _______ _______ _______ _____ _____    ______ ____
ROOT
ATOM      1  C   UNL     1     -16.789   1.127  -8.322  0.00  0.00    -0.019 C 
ATOM      2  C   UNL     1     -16.353   2.300  -8.812  0.00  0.00    -0.019 C 
ENDROOT
BRANCH   1   3
ATOM      3  C   UNL     1     -15.947   0.137  -7.576  0.00  0.00    +0.102 C 
BRANCH   3   4
ATOM      4  S   UNL     1     -14.379   0.925  -7.113  0.00  0.00    -0.102 S 
BRANCH   4   8
ATOM      5  C   UNL     1     -14.206  -0.503  -2.832  0.00  0.00    +0.020 A 
ATOM      6  C   UNL     1     -14.739  -1.248  -3.868  0.00  0.00    +0.112 A 
ATOM      7  N   UNL     1     -14.800  -0.819  -5.146  0.00  0.00    -0.249 NA
ATOM      8  C   UNL     1     -14.297   0.406  -5.416  0.00  0.00    +0.097 A 
ATOM      9  C   UNL     1     -13.736   1.218  -4.438  0.00  0.00    +0.035 A 
ATOM     10  C   UNL     1     -13.696   0.756  -3.125  0.00  0.00    +0.004 A 
ENDBRANCH   4   8
ENDBRANCH   3   4
ENDBRANCH   1   3
BRANCH   2  11
ATOM     11  C   UNL     1     -17.240   3.271  -9.532  0.00  0.00    +0.102 C 
BRANCH  11  12
ATOM     12  S   UNL     1     -16.247   4.635 -10.193  0.00  0.00    -0.102 S 
BRANCH  12  13
ATOM     13  C   UNL     1     -16.130   4.046 -11.866  0.00  0.00    +0.097 A 
ATOM     14  N   UNL     1     -15.107   4.517 -12.614  0.00  0.00    -0.249 NA
ATOM     15  C   UNL     1     -15.017   4.072 -13.886  0.00  0.00    +0.112 A 
ATOM     16  C   UNL     1     -15.893   3.158 -14.445  0.00  0.00    +0.020 A 
ATOM     17  C   UNL     1     -16.933   2.681 -13.658  0.00  0.00    +0.004 A 
ATOM     18  C   UNL     1     -17.062   3.136 -12.349  0.00  0.00    +0.035 A 
ENDBRANCH  12  13
ENDBRANCH  11  12
ENDBRANCH   2  11
TORSDOF 6
ENDMDL
MODEL 8
REMARK VINA RESULT:      -5.9      3.345      4.111
REMARK  Name = min_compound916.pdb
REMARK  6 active torsions:
REMARK  status: ('A' for Active; 'I' for Inactive)
REMARK    1  A    between atoms: _6  and  _7
REMARK    2  A    between atoms: _7  and  _15
REMARK    3  A    between atoms: _8  and  _9
REMARK    4  A    between atoms: _8  and  _18
REMARK    5  A    between atoms: _15  and  _16
REMARK    6  A    between atoms: _17  and  _18
REMARK                            x       y       z     vdW  Elec       q    Type
REMARK                         _______ _______ _______ _____ _____    ______ ____
ROOT
ATOM      1  C   UNL     1     -14.211   3.973 -15.499  0.00  0.00    -0.019 C 
ATOM      2  C   UNL     1     -14.828   4.246 -14.337  0.00  0.00    -0.019 C 
ENDROOT
BRANCH   1   3
ATOM      3  C   UNL     1     -12.994   3.111 -15.648  0.00  0.00    +0.102 C 
BRANCH   3   4
ATOM      4  S   UNL     1     -12.876   2.547 -17.369  0.00  0.00    -0.102 S 
BRANCH   4   8
ATOM      5  C   UNL     1      -9.770  -0.691 -16.853  0.00  0.00    +0.020 A 
ATOM      6  C   UNL     1      -9.494   0.562 -17.370  0.00  0.00    +0.112 A 
ATOM      7  N   UNL     1     -10.422   1.528 -17.533  0.00  0.00    -0.249 NA
ATOM      8  C   UNL     1     -11.688   1.244 -17.155  0.00  0.00    +0.097 A 
ATOM      9  C   UNL     1     -12.053   0.014 -16.620  0.00  0.00    +0.035 A 
ATOM     10  C   UNL     1     -11.078  -0.969 -16.473  0.00  0.00    +0.004 A 
ENDBRANCH   4   8
ENDBRANCH   3   4
ENDBRANCH   1   3
BRANCH   2  11
ATOM     11  C   UNL     1     -16.060   5.096 -14.240  0.00  0.00    +0.102 C 
BRANCH  11  12
ATOM     12  S   UNL     1     -15.758   6.488 -13.121  0.00  0.00    -0.102 S 
BRANCH  12  13
ATOM     13  C   UNL     1     -15.831   7.783 -14.338  0.00  0.00    +0.097 A 
ATOM     14  N   UNL     1     -16.492   8.912 -13.995  0.00  0.00    -0.249 NA
ATOM     15  C   UNL     1     -16.550   9.896 -14.918  0.00  0.00    +0.112 A 
ATOM     16  C   UNL     1     -15.960   9.815 -16.168  0.00  0.00    +0.020 A 
ATOM     17  C   UNL     1     -15.280   8.649 -16.497  0.00  0.00    +0.004 A 
ATOM     18  C   UNL     1     -15.219   7.611 -15.572  0.00  0.00    +0.035 A 
ENDBRANCH  12  13
ENDBRANCH  11  12
ENDBRANCH   2  11
TORSDOF 6
ENDMDL
MODEL 9
REMARK VINA RESULT:      -5.9      5.039      8.185
REMARK  Name = min_compound916.pdb
REMARK  6 active torsions:
REMARK  status: ('A' for Active; 'I' for Inactive)
REMARK    1  A    between atoms: _6  and  _7
REMARK    2  A    between atoms: _7  and  _15
REMARK    3  A    between atoms: _8  and  _9
REMARK    4  A    between atoms: _8  and  _18
REMARK    5  A    between atoms: _15  and  _16
REMARK    6  A    between atoms: _17  and  _18
REMARK                            x       y       z     vdW  Elec       q    Type
REMARK                         _______ _______ _______ _____ _____    ______ ____
ROOT
ATOM      1  C   UNL     1     -16.482   2.584  -8.497  0.00  0.00    -0.019 C 
ATOM      2  C   UNL     1     -16.811   1.287  -8.369  0.00  0.00    -0.019 C 
ENDROOT
BRANCH   1   3
ATOM      3  C   UNL     1     -17.330   3.628  -9.158  0.00  0.00    +0.102 C 
BRANCH   3   4
ATOM      4  S   UNL     1     -16.250   4.843  -9.963  0.00  0.00    -0.102 S 
BRANCH   4   8
ATOM      5  C   UNL     1     -16.090   3.146 -14.145  0.00  0.00    +0.020 A 
ATOM      6  C   UNL     1     -15.165   4.045 -13.646  0.00  0.00    +0.112 A 
ATOM      7  N   UNL     1     -15.216   4.560 -12.399  0.00  0.00    -0.249 NA
ATOM      8  C   UNL     1     -16.229   4.156 -11.601  0.00  0.00    +0.097 A 
ATOM      9  C   UNL     1     -17.198   3.251 -12.018  0.00  0.00    +0.035 A 
ATOM     10  C   UNL     1     -17.127   2.744 -13.313  0.00  0.00    +0.004 A 
ENDBRANCH   4   8
ENDBRANCH   3   4
ENDBRANCH   1   3
BRANCH   2  11
ATOM     11  C   UNL     1     -15.939   0.282  -7.676  0.00  0.00    +0.102 C 
BRANCH  11  12
ATOM     12  S   UNL     1     -16.661  -0.153  -6.072  0.00  0.00    -0.102 S 
BRANCH  12  13
ATOM     13  C   UNL     1     -15.542   0.782  -5.055  0.00  0.00    +0.097 A 
ATOM     14  N   UNL     1     -15.917   2.039  -4.723  0.00  0.00    -0.249 NA
ATOM     15  C   UNL     1     -15.068   2.751  -3.952  0.00  0.00    +0.112 A 
ATOM     16  C   UNL     1     -13.865   2.261  -3.475  0.00  0.00    +0.020 A 
ATOM     17  C   UNL     1     -13.502   0.965  -3.821  0.00  0.00    +0.004 A 
ATOM     18  C   UNL     1     -14.349   0.213  -4.630  0.00  0.00    +0.035 A 
ENDBRANCH  12  13
ENDBRANCH  11  12
ENDBRANCH   2  11
TORSDOF 6
ENDMDL
