MODEL 1
REMARK VINA RESULT:      -7.9      0.000      0.000
REMARK  Name = min_compound990.pdb
REMARK  2 active torsions:
REMARK  status: ('A' for Active; 'I' for Inactive)
REMARK    1  A    between atoms: _3  and  _24
REMARK    2  A    between atoms: _10  and  _24
REMARK                            x       y       z     vdW  Elec       q    Type
REMARK                         _______ _______ _______ _____ _____    ______ ____
ROOT
ATOM      1  S   UNL     1     -14.619   4.370 -17.136  0.00  0.00    +0.061 S 
ATOM      2  O   UNL     1     -15.701   3.520 -17.584  0.00  0.00    -0.153 OA
ATOM      3  O   UNL     1     -14.000   5.308 -18.051  0.00  0.00    -0.153 OA
ENDROOT
BRANCH   1   4
ATOM      4  C   UNL     1     -13.296   3.336 -16.542  0.00  0.00    +0.106 A 
ATOM      5  C   UNL     1     -13.245   1.980 -16.866  0.00  0.00    +0.034 A 
ATOM      6  C   UNL     1     -12.155   1.201 -16.440  0.00  0.00    -0.025 A 
ATOM      7  C   UNL     1     -12.120  -0.267 -16.780  0.00  0.00    +0.038 C 
ATOM      8  C   UNL     1     -11.087  -1.020 -15.947  0.00  0.00    +0.023 C 
ATOM      9  C   UNL     1      -9.783  -0.239 -15.929  0.00  0.00    +0.102 C 
ATOM     10  N   UNL     1      -9.988   1.055 -15.291  0.00  0.00    -0.344 N 
ATOM     11  H   UNL     1      -9.141   1.613 -15.225  0.00  0.00    +0.146 HD
ATOM     12  C   UNL     1     -11.078   1.804 -15.761  0.00  0.00    +0.030 A 
ATOM     13  C   UNL     1     -11.163   3.160 -15.424  0.00  0.00    +0.025 A 
ATOM     14  C   UNL     1     -12.257   3.929 -15.820  0.00  0.00    +0.030 A 
ENDBRANCH   1   4
BRANCH   1  24
ATOM     15  C   UNL     1     -15.974   4.655 -14.701  0.00  0.00    +0.083 C 
ATOM     16  C   UNL     1     -17.438   5.107 -15.016  0.00  0.00    +0.008 C 
ATOM     17  C   UNL     1     -18.496   4.597 -14.081  0.00  0.00    +0.005 C 
ATOM     18  C   UNL     1     -17.563   4.004 -12.909  0.00  0.00    +0.000 C 
ATOM     19  C   UNL     1     -16.953   2.614 -13.417  0.00  0.00    +0.002 C 
ATOM     20  C   UNL     1     -17.681   6.353 -15.815  0.00  0.00    +0.006 C 
ATOM     21  C   UNL     1     -16.625   6.862 -16.749  0.00  0.00    +0.017 C 
ATOM     22  C   UNL     1     -15.326   6.651 -15.843  0.00  0.00    +0.110 C 
ATOM     23  C   UNL     1     -15.896   3.124 -14.353  0.00  0.00    +0.021 C 
ATOM     24  N   UNL     1     -15.077   5.195 -15.732  0.00  0.00    -0.173 NA
ENDBRANCH   1  24
TORSDOF 2
ENDMDL
MODEL 2
REMARK VINA RESULT:      -7.4      3.137      4.765
REMARK  Name = min_compound990.pdb
REMARK  2 active torsions:
REMARK  status: ('A' for Active; 'I' for Inactive)
REMARK    1  A    between atoms: _3  and  _24
REMARK    2  A    between atoms: _10  and  _24
REMARK                            x       y       z     vdW  Elec       q    Type
REMARK                         _______ _______ _______ _____ _____    ______ ____
ROOT
ATOM      1  S   UNL     1     -14.541   4.245 -17.675  0.00  0.00    +0.061 S 
ATOM      2  O   UNL     1     -14.397   5.618 -17.245  0.00  0.00    -0.153 OA
ATOM      3  O   UNL     1     -15.775   3.527 -17.429  0.00  0.00    -0.153 OA
ENDROOT
BRANCH   1   4
ATOM      4  C   UNL     1     -13.261   3.274 -16.906  0.00  0.00    +0.106 A 
ATOM      5  C   UNL     1     -13.134   1.912 -17.178  0.00  0.00    +0.034 A 
ATOM      6  C   UNL     1     -12.075   1.182 -16.610  0.00  0.00    -0.025 A 
ATOM      7  C   UNL     1     -11.959  -0.294 -16.895  0.00  0.00    +0.038 C 
ATOM      8  C   UNL     1     -11.002  -0.987 -15.930  0.00  0.00    +0.023 C 
ATOM      9  C   UNL     1      -9.732  -0.163 -15.795  0.00  0.00    +0.102 C 
ATOM     10  N   UNL     1     -10.045   1.142 -15.226  0.00  0.00    -0.344 N 
ATOM     11  H   UNL     1      -9.227   1.730 -15.086  0.00  0.00    +0.146 HD
ATOM     12  C   UNL     1     -11.098   1.840 -15.837  0.00  0.00    +0.030 A 
ATOM     13  C   UNL     1     -11.260   3.202 -15.556  0.00  0.00    +0.025 A 
ATOM     14  C   UNL     1     -12.326   3.922 -16.095  0.00  0.00    +0.030 A 
ENDBRANCH   1   4
BRANCH   1  24
ATOM     15  C   UNL     1     -13.366   5.099 -20.071  0.00  0.00    +0.083 C 
ATOM     16  C   UNL     1     -14.350   6.103 -20.757  0.00  0.00    +0.008 C 
ATOM     17  C   UNL     1     -13.712   7.216 -21.535  0.00  0.00    +0.005 C 
ATOM     18  C   UNL     1     -12.191   6.690 -21.569  0.00  0.00    +0.000 C 
ATOM     19  C   UNL     1     -11.543   6.955 -20.130  0.00  0.00    +0.002 C 
ATOM     20  C   UNL     1     -15.754   5.677 -21.071  0.00  0.00    +0.006 C 
ATOM     21  C   UNL     1     -16.391   4.564 -20.294  0.00  0.00    +0.017 C 
ATOM     22  C   UNL     1     -15.169   3.538 -20.222  0.00  0.00    +0.110 C 
ATOM     23  C   UNL     1     -12.181   5.841 -19.352  0.00  0.00    +0.021 C 
ATOM     24  N   UNL     1     -14.146   4.109 -19.314  0.00  0.00    -0.173 NA
ENDBRANCH   1  24
TORSDOF 2
ENDMDL
MODEL 3
REMARK VINA RESULT:      -7.1      6.116      8.404
REMARK  Name = min_compound990.pdb
REMARK  2 active torsions:
REMARK  status: ('A' for Active; 'I' for Inactive)
REMARK    1  A    between atoms: _3  and  _24
REMARK    2  A    between atoms: _10  and  _24
REMARK                            x       y       z     vdW  Elec       q    Type
REMARK                         _______ _______ _______ _____ _____    ______ ____
ROOT
ATOM      1  S   UNL     1     -18.441   3.440  -8.673  0.00  0.00    +0.061 S 
ATOM      2  O   UNL     1     -19.353   2.356  -8.964  0.00  0.00    -0.153 OA
ATOM      3  O   UNL     1     -18.950   4.766  -8.385  0.00  0.00    -0.153 OA
ENDROOT
BRANCH   1   4
ATOM      4  C   UNL     1     -17.339   3.641 -10.057  0.00  0.00    +0.106 A 
ATOM      5  C   UNL     1     -17.661   3.121 -11.311  0.00  0.00    +0.034 A 
ATOM      6  C   UNL     1     -16.806   3.349 -12.403  0.00  0.00    -0.025 A 
ATOM      7  C   UNL     1     -17.154   2.766 -13.749  0.00  0.00    +0.038 C 
ATOM      8  C   UNL     1     -15.967   2.792 -14.706  0.00  0.00    +0.023 C 
ATOM      9  C   UNL     1     -15.299   4.157 -14.648  0.00  0.00    +0.102 C 
ATOM     10  N   UNL     1     -14.776   4.397 -13.309  0.00  0.00    -0.344 N 
ATOM     11  H   UNL     1     -14.292   5.286 -13.216  0.00  0.00    +0.146 HD
ATOM     12  C   UNL     1     -15.672   4.171 -12.252  0.00  0.00    +0.030 A 
ATOM     13  C   UNL     1     -15.354   4.661 -10.980  0.00  0.00    +0.025 A 
ATOM     14  C   UNL     1     -16.185   4.410  -9.888  0.00  0.00    +0.030 A 
ENDBRANCH   1   4
BRANCH   1  24
ATOM     15  C   UNL     1     -16.957   1.601  -7.169  0.00  0.00    +0.083 C 
ATOM     16  C   UNL     1     -17.907   0.986  -6.089  0.00  0.00    +0.008 C 
ATOM     17  C   UNL     1     -17.647  -0.448  -5.729  0.00  0.00    +0.005 C 
ATOM     18  C   UNL     1     -16.221  -0.657  -6.448  0.00  0.00    +0.000 C 
ATOM     19  C   UNL     1     -16.477  -0.811  -8.020  0.00  0.00    +0.002 C 
ATOM     20  C   UNL     1     -18.622   1.883  -5.124  0.00  0.00    +0.006 C 
ATOM     21  C   UNL     1     -18.882   3.315  -5.483  0.00  0.00    +0.017 C 
ATOM     22  C   UNL     1     -17.478   3.696  -6.145  0.00  0.00    +0.110 C 
ATOM     23  C   UNL     1     -16.737   0.623  -8.380  0.00  0.00    +0.021 C 
ATOM     24  N   UNL     1     -17.376   2.983  -7.441  0.00  0.00    -0.173 NA
ENDBRANCH   1  24
TORSDOF 2
ENDMDL
MODEL 4
REMARK VINA RESULT:      -7.1      2.980      3.491
REMARK  Name = min_compound990.pdb
REMARK  2 active torsions:
REMARK  status: ('A' for Active; 'I' for Inactive)
REMARK    1  A    between atoms: _3  and  _24
REMARK    2  A    between atoms: _10  and  _24
REMARK                            x       y       z     vdW  Elec       q    Type
REMARK                         _______ _______ _______ _____ _____    ______ ____
ROOT
ATOM      1  S   UNL     1     -12.446   5.511 -18.209  0.00  0.00    +0.061 S 
ATOM      2  O   UNL     1     -12.387   5.199 -19.620  0.00  0.00    -0.153 OA
ATOM      3  O   UNL     1     -11.758   6.675 -17.688  0.00  0.00    -0.153 OA
ENDROOT
BRANCH   1   4
ATOM      4  C   UNL     1     -11.800   4.125 -17.296  0.00  0.00    +0.106 A 
ATOM      5  C   UNL     1     -12.016   2.817 -17.731  0.00  0.00    +0.034 A 
ATOM      6  C   UNL     1     -11.439   1.744 -17.029  0.00  0.00    -0.025 A 
ATOM      7  C   UNL     1     -11.696   0.334 -17.497  0.00  0.00    +0.038 C 
ATOM      8  C   UNL     1     -11.317  -0.696 -16.437  0.00  0.00    +0.023 C 
ATOM      9  C   UNL     1      -9.954  -0.350 -15.858  0.00  0.00    +0.102 C 
ATOM     10  N   UNL     1     -10.010   0.947 -15.196  0.00  0.00    -0.344 N 
ATOM     11  H   UNL     1      -9.131   1.220 -14.764  0.00  0.00    +0.146 HD
ATOM     12  C   UNL     1     -10.579   1.991 -15.942  0.00  0.00    +0.030 A 
ATOM     13  C   UNL     1     -10.397   3.310 -15.507  0.00  0.00    +0.025 A 
ATOM     14  C   UNL     1     -10.992   4.374 -16.184  0.00  0.00    +0.030 A 
ENDBRANCH   1   4
BRANCH   1  24
ATOM     15  C   UNL     1     -15.210   5.186 -18.528  0.00  0.00    +0.083 C 
ATOM     16  C   UNL     1     -15.770   6.478 -19.210  0.00  0.00    +0.008 C 
ATOM     17  C   UNL     1     -16.928   6.276 -20.144  0.00  0.00    +0.005 C 
ATOM     18  C   UNL     1     -17.304   4.751 -19.788  0.00  0.00    +0.000 C 
ATOM     19  C   UNL     1     -16.221   3.799 -20.484  0.00  0.00    +0.002 C 
ATOM     20  C   UNL     1     -15.545   7.817 -18.574  0.00  0.00    +0.006 C 
ATOM     21  C   UNL     1     -14.388   8.019 -17.642  0.00  0.00    +0.017 C 
ATOM     22  C   UNL     1     -14.465   6.662 -16.803  0.00  0.00    +0.110 C 
ATOM     23  C   UNL     1     -15.063   4.001 -19.551  0.00  0.00    +0.021 C 
ATOM     24  N   UNL     1     -14.057   5.550 -17.693  0.00  0.00    -0.173 NA
ENDBRANCH   1  24
TORSDOF 2
ENDMDL
MODEL 5
REMARK VINA RESULT:      -7.0      2.585      7.014
REMARK  Name = min_compound990.pdb
REMARK  2 active torsions:
REMARK  status: ('A' for Active; 'I' for Inactive)
REMARK    1  A    between atoms: _3  and  _24
REMARK    2  A    between atoms: _10  and  _24
REMARK                            x       y       z     vdW  Elec       q    Type
REMARK                         _______ _______ _______ _____ _____    ______ ____
ROOT
ATOM      1  S   UNL     1     -14.188   3.171 -16.016  0.00  0.00    +0.061 S 
ATOM      2  O   UNL     1     -15.180   2.133 -15.840  0.00  0.00    -0.153 OA
ATOM      3  O   UNL     1     -13.384   3.610 -14.893  0.00  0.00    -0.153 OA
ENDROOT
BRANCH   1   4
ATOM      4  C   UNL     1     -15.001   4.634 -16.625  0.00  0.00    +0.106 A 
ATOM      5  C   UNL     1     -14.792   5.874 -16.020  0.00  0.00    +0.034 A 
ATOM      6  C   UNL     1     -15.393   7.023 -16.561  0.00  0.00    -0.025 A 
ATOM      7  C   UNL     1     -15.176   8.355 -15.888  0.00  0.00    +0.038 C 
ATOM      8  C   UNL     1     -16.172   9.406 -16.369  0.00  0.00    +0.023 C 
ATOM      9  C   UNL     1     -16.268   9.356 -17.886  0.00  0.00    +0.102 C 
ATOM     10  N   UNL     1     -16.777   8.057 -18.308  0.00  0.00    -0.344 N 
ATOM     11  H   UNL     1     -16.889   7.974 -19.315  0.00  0.00    +0.146 HD
ATOM     12  C   UNL     1     -16.134   6.938 -17.755  0.00  0.00    +0.030 A 
ATOM     13  C   UNL     1     -16.352   5.681 -18.330  0.00  0.00    +0.025 A 
ATOM     14  C   UNL     1     -15.781   4.534 -17.779  0.00  0.00    +0.030 A 
ENDBRANCH   1   4
BRANCH   1  24
ATOM     15  C   UNL     1     -12.229   1.643 -17.312  0.00  0.00    +0.083 C 
ATOM     16  C   UNL     1     -10.830   2.134 -16.814  0.00  0.00    +0.008 C 
ATOM     17  C   UNL     1      -9.765   1.081 -16.714  0.00  0.00    +0.005 C 
ATOM     18  C   UNL     1     -10.496  -0.123 -17.494  0.00  0.00    +0.000 C 
ATOM     19  C   UNL     1     -11.595  -0.752 -16.515  0.00  0.00    +0.002 C 
ATOM     20  C   UNL     1     -10.447   3.577 -16.963  0.00  0.00    +0.006 C 
ATOM     21  C   UNL     1     -11.511   4.628 -17.063  0.00  0.00    +0.017 C 
ATOM     22  C   UNL     1     -12.535   3.896 -18.046  0.00  0.00    +0.110 C 
ATOM     23  C   UNL     1     -12.660   0.301 -16.615  0.00  0.00    +0.021 C 
ATOM     24  N   UNL     1     -13.163   2.778 -17.303  0.00  0.00    -0.173 NA
ENDBRANCH   1  24
TORSDOF 2
ENDMDL
MODEL 6
REMARK VINA RESULT:      -6.9      2.594      3.919
REMARK  Name = min_compound990.pdb
REMARK  2 active torsions:
REMARK  status: ('A' for Active; 'I' for Inactive)
REMARK    1  A    between atoms: _3  and  _24
REMARK    2  A    between atoms: _10  and  _24
REMARK                            x       y       z     vdW  Elec       q    Type
REMARK                         _______ _______ _______ _____ _____    ______ ____
ROOT
ATOM      1  S   UNL     1     -14.031   4.712 -16.697  0.00  0.00    +0.061 S 
ATOM      2  O   UNL     1     -13.587   5.937 -17.325  0.00  0.00    -0.153 OA
ATOM      3  O   UNL     1     -14.504   4.724 -15.327  0.00  0.00    -0.153 OA
ENDROOT
BRANCH   1   4
ATOM      4  C   UNL     1     -12.690   3.540 -16.731  0.00  0.00    +0.106 A 
ATOM      5  C   UNL     1     -12.934   2.170 -16.630  0.00  0.00    +0.034 A 
ATOM      6  C   UNL     1     -11.865   1.263 -16.726  0.00  0.00    -0.025 A 
ATOM      7  C   UNL     1     -12.137  -0.215 -16.595  0.00  0.00    +0.038 C 
ATOM      8  C   UNL     1     -10.858  -1.011 -16.356  0.00  0.00    +0.023 C 
ATOM      9  C   UNL     1      -9.781  -0.545 -17.324  0.00  0.00    +0.102 C 
ATOM     10  N   UNL     1      -9.467   0.857 -17.079  0.00  0.00    -0.344 N 
ATOM     11  H   UNL     1      -8.732   1.219 -17.681  0.00  0.00    +0.146 HD
ATOM     12  C   UNL     1     -10.566   1.728 -17.008  0.00  0.00    +0.030 A 
ATOM     13  C   UNL     1     -10.340   3.108 -17.080  0.00  0.00    +0.025 A 
ATOM     14  C   UNL     1     -11.395   4.012 -16.955  0.00  0.00    +0.030 A 
ENDBRANCH   1   4
BRANCH   1  24
ATOM     15  C   UNL     1     -15.156   3.924 -19.138  0.00  0.00    +0.083 C 
ATOM     16  C   UNL     1     -16.003   5.120 -19.686  0.00  0.00    +0.008 C 
ATOM     17  C   UNL     1     -16.035   5.269 -21.179  0.00  0.00    +0.005 C 
ATOM     18  C   UNL     1     -15.378   3.864 -21.609  0.00  0.00    +0.000 C 
ATOM     19  C   UNL     1     -13.800   3.958 -21.359  0.00  0.00    +0.002 C 
ATOM     20  C   UNL     1     -17.104   5.700 -18.849  0.00  0.00    +0.006 C 
ATOM     21  C   UNL     1     -17.071   5.551 -17.358  0.00  0.00    +0.017 C 
ATOM     22  C   UNL     1     -16.603   4.028 -17.240  0.00  0.00    +0.110 C 
ATOM     23  C   UNL     1     -13.767   3.809 -19.866  0.00  0.00    +0.021 C 
ATOM     24  N   UNL     1     -15.187   3.951 -17.669  0.00  0.00    -0.173 NA
ENDBRANCH   1  24
TORSDOF 2
ENDMDL
MODEL 7
REMARK VINA RESULT:      -6.8      8.994     11.661
REMARK  Name = min_compound990.pdb
REMARK  2 active torsions:
REMARK  status: ('A' for Active; 'I' for Inactive)
REMARK    1  A    between atoms: _3  and  _24
REMARK    2  A    between atoms: _10  and  _24
REMARK                            x       y       z     vdW  Elec       q    Type
REMARK                         _______ _______ _______ _____ _____    ______ ____
ROOT
ATOM      1  S   UNL     1     -18.187   1.358  -5.631  0.00  0.00    +0.061 S 
ATOM      2  O   UNL     1     -17.668   0.151  -6.237  0.00  0.00    -0.153 OA
ATOM      3  O   UNL     1     -19.613   1.525  -5.444  0.00  0.00    -0.153 OA
ENDROOT
BRANCH   1   4
ATOM      4  C   UNL     1     -17.665   2.752  -6.609  0.00  0.00    +0.106 A 
ATOM      5  C   UNL     1     -17.174   2.576  -7.903  0.00  0.00    +0.034 A 
ATOM      6  C   UNL     1     -16.831   3.698  -8.677  0.00  0.00    -0.025 A 
ATOM      7  C   UNL     1     -16.284   3.495 -10.068  0.00  0.00    +0.038 C 
ATOM      8  C   UNL     1     -15.631   4.762 -10.613  0.00  0.00    +0.023 C 
ATOM      9  C   UNL     1     -16.537   5.954 -10.347  0.00  0.00    +0.102 C 
ATOM     10  N   UNL     1     -16.702   6.141  -8.911  0.00  0.00    -0.344 N 
ATOM     11  H   UNL     1     -17.278   6.943  -8.670  0.00  0.00    +0.146 HD
ATOM     12  C   UNL     1     -17.061   4.996  -8.182  0.00  0.00    +0.030 A 
ATOM     13  C   UNL     1     -17.530   5.149  -6.871  0.00  0.00    +0.025 A 
ATOM     14  C   UNL     1     -17.843   4.036  -6.090  0.00  0.00    +0.030 A 
ENDBRANCH   1   4
BRANCH   1  24
ATOM     15  C   UNL     1     -15.991   1.342  -3.892  0.00  0.00    +0.083 C 
ATOM     16  C   UNL     1     -15.892  -0.083  -3.255  0.00  0.00    +0.008 C 
ATOM     17  C   UNL     1     -14.505  -0.575  -2.962  0.00  0.00    +0.005 C 
ATOM     18  C   UNL     1     -13.679   0.791  -3.176  0.00  0.00    +0.000 C 
ATOM     19  C   UNL     1     -13.551   1.051  -4.750  0.00  0.00    +0.002 C 
ATOM     20  C   UNL     1     -17.062  -0.651  -2.508  0.00  0.00    +0.006 C 
ATOM     21  C   UNL     1     -18.448  -0.160  -2.800  0.00  0.00    +0.017 C 
ATOM     22  C   UNL     1     -18.170   1.409  -2.915  0.00  0.00    +0.110 C 
ATOM     23  C   UNL     1     -14.939   1.542  -5.043  0.00  0.00    +0.021 C 
ATOM     24  N   UNL     1     -17.403   1.648  -4.161  0.00  0.00    -0.173 NA
ENDBRANCH   1  24
TORSDOF 2
ENDMDL
MODEL 8
REMARK VINA RESULT:      -6.8      5.117      7.072
REMARK  Name = min_compound990.pdb
REMARK  2 active torsions:
REMARK  status: ('A' for Active; 'I' for Inactive)
REMARK    1  A    between atoms: _3  and  _24
REMARK    2  A    between atoms: _10  and  _24
REMARK                            x       y       z     vdW  Elec       q    Type
REMARK                         _______ _______ _______ _____ _____    ______ ____
ROOT
ATOM      1  S   UNL     1     -18.291   4.311 -10.217  0.00  0.00    +0.061 S 
ATOM      2  O   UNL     1     -19.144   3.143 -10.222  0.00  0.00    -0.153 OA
ATOM      3  O   UNL     1     -18.857   5.630 -10.415  0.00  0.00    -0.153 OA
ENDROOT
BRANCH   1   4
ATOM      4  C   UNL     1     -17.062   4.120 -11.492  0.00  0.00    +0.106 A 
ATOM      5  C   UNL     1     -17.308   3.324 -12.611  0.00  0.00    +0.034 A 
ATOM      6  C   UNL     1     -16.348   3.243 -13.634  0.00  0.00    -0.025 A 
ATOM      7  C   UNL     1     -16.616   2.364 -14.829  0.00  0.00    +0.038 C 
ATOM      8  C   UNL     1     -15.351   2.105 -15.642  0.00  0.00    +0.023 C 
ATOM      9  C   UNL     1     -14.602   3.413 -15.845  0.00  0.00    +0.102 C 
ATOM     10  N   UNL     1     -14.183   3.951 -14.557  0.00  0.00    -0.344 N 
ATOM     11  H   UNL     1     -13.652   4.814 -14.631  0.00  0.00    +0.146 HD
ATOM     12  C   UNL     1     -15.180   4.028 -13.571  0.00  0.00    +0.030 A 
ATOM     13  C   UNL     1     -14.942   4.800 -12.428  0.00  0.00    +0.025 A 
ATOM     14  C   UNL     1     -15.880   4.859 -11.397  0.00  0.00    +0.030 A 
ENDBRANCH   1   4
BRANCH   1  24
ATOM     15  C   UNL     1     -16.957   3.131  -8.055  0.00  0.00    +0.083 C 
ATOM     16  C   UNL     1     -18.003   2.895  -6.916  0.00  0.00    +0.008 C 
ATOM     17  C   UNL     1     -17.784   1.676  -6.068  0.00  0.00    +0.005 C 
ATOM     18  C   UNL     1     -16.300   1.272  -6.547  0.00  0.00    +0.000 C 
ATOM     19  C   UNL     1     -16.415   0.586  -7.989  0.00  0.00    +0.002 C 
ATOM     20  C   UNL     1     -18.797   4.049  -6.379  0.00  0.00    +0.006 C 
ATOM     21  C   UNL     1     -19.015   5.266  -7.226  0.00  0.00    +0.017 C 
ATOM     22  C   UNL     1     -17.557   5.434  -7.855  0.00  0.00    +0.110 C 
ATOM     23  C   UNL     1     -16.635   1.805  -8.836  0.00  0.00    +0.021 C 
ATOM     24  N   UNL     1     -17.343   4.327  -8.816  0.00  0.00    -0.173 NA
ENDBRANCH   1  24
TORSDOF 2
ENDMDL
MODEL 9
REMARK VINA RESULT:      -6.7      2.040      2.755
REMARK  Name = min_compound990.pdb
REMARK  2 active torsions:
REMARK  status: ('A' for Active; 'I' for Inactive)
REMARK    1  A    between atoms: _3  and  _24
REMARK    2  A    between atoms: _10  and  _24
REMARK                            x       y       z     vdW  Elec       q    Type
REMARK                         _______ _______ _______ _____ _____    ______ ____
ROOT
ATOM      1  S   UNL     1     -16.278   5.041 -15.727  0.00  0.00    +0.061 S 
ATOM      2  O   UNL     1     -17.411   4.269 -15.268  0.00  0.00    -0.153 OA
ATOM      3  O   UNL     1     -16.379   5.841 -16.931  0.00  0.00    -0.153 OA
ENDROOT
BRANCH   1   4
ATOM      4  C   UNL     1     -14.911   3.933 -16.001  0.00  0.00    +0.106 A 
ATOM      5  C   UNL     1     -13.609   4.418 -16.127  0.00  0.00    +0.034 A 
ATOM      6  C   UNL     1     -12.540   3.518 -16.277  0.00  0.00    -0.025 A 
ATOM      7  C   UNL     1     -11.139   4.055 -16.432  0.00  0.00    +0.038 C 
ATOM      8  C   UNL     1     -10.174   2.990 -16.944  0.00  0.00    +0.023 C 
ATOM      9  C   UNL     1     -10.385   1.699 -16.167  0.00  0.00    +0.102 C 
ATOM     10  N   UNL     1     -11.735   1.199 -16.392  0.00  0.00    -0.344 N 
ATOM     11  H   UNL     1     -11.926   0.321 -15.918  0.00  0.00    +0.146 HD
ATOM     12  C   UNL     1     -12.771   2.130 -16.215  0.00  0.00    +0.030 A 
ATOM     13  C   UNL     1     -14.087   1.665 -16.114  0.00  0.00    +0.025 A 
ATOM     14  C   UNL     1     -15.153   2.557 -15.995  0.00  0.00    +0.030 A 
ENDBRANCH   1   4
BRANCH   1  24
ATOM     15  C   UNL     1     -15.785   5.676 -13.043  0.00  0.00    +0.083 C 
ATOM     16  C   UNL     1     -17.087   6.313 -12.454  0.00  0.00    +0.008 C 
ATOM     17  C   UNL     1     -17.360   6.023 -11.007  0.00  0.00    +0.005 C 
ATOM     18  C   UNL     1     -15.946   5.378 -10.584  0.00  0.00    +0.000 C 
ATOM     19  C   UNL     1     -15.892   3.885 -11.158  0.00  0.00    +0.002 C 
ATOM     20  C   UNL     1     -17.684   7.527 -13.101  0.00  0.00    +0.006 C 
ATOM     21  C   UNL     1     -17.411   7.817 -14.546  0.00  0.00    +0.017 C 
ATOM     22  C   UNL     1     -15.851   7.480 -14.608  0.00  0.00    +0.110 C 
ATOM     23  C   UNL     1     -15.619   4.175 -12.605  0.00  0.00    +0.021 C 
ATOM     24  N   UNL     1     -15.694   6.012 -14.471  0.00  0.00    -0.173 NA
ENDBRANCH   1  24
TORSDOF 2
ENDMDL
