MODEL 1
REMARK VINA RESULT:      -7.7      0.000      0.000
REMARK  Name = min_compound928.pdb
REMARK  5 active torsions:
REMARK  status: ('A' for Active; 'I' for Inactive)
REMARK    1  A    between atoms: _2  and  _4
REMARK    2  A    between atoms: _2  and  _19
REMARK    3  A    between atoms: _3  and  _20
REMARK    4  A    between atoms: _6  and  _21
REMARK    5  A    between atoms: _18  and  _19
REMARK                            x       y       z     vdW  Elec       q    Type
REMARK                         _______ _______ _______ _____ _____    ______ ____
ROOT
ATOM      1  C   UNL     1     -14.873  -3.672  -2.020  0.00  0.00    +0.119 A 
ATOM      2  C   UNL     1     -13.496  -4.166  -1.723  0.00  0.00    +0.266 A 
ATOM      3  N   UNL     1     -13.295  -5.496  -1.951  0.00  0.00    -0.274 N 
ATOM      4  C   UNL     1     -14.295  -6.413  -2.027  0.00  0.00    +0.330 A 
ATOM      5  O   UNL     1     -14.029  -7.614  -1.937  0.00  0.00    -0.246 OA
ATOM      6  N   UNL     1     -15.575  -5.910  -2.194  0.00  0.00    -0.285 N 
ATOM      7  C   UNL     1     -16.726  -6.866  -2.305  0.00  0.00    +0.155 C 
ATOM      8  H   UNL     1     -12.381  -5.843  -1.723  0.00  0.00    +0.173 HD
ATOM      9  O   UNL     1     -12.573  -3.488  -1.279  0.00  0.00    -0.267 OA
ATOM     10  C   UNL     1     -15.858  -4.570  -2.269  0.00  0.00    +0.116 A 
ENDROOT
BRANCH  10  11
ATOM     11  N   UNL     1     -17.175  -4.178  -2.557  0.00  0.00    -0.344 N 
ATOM     12  H   UNL     1     -17.234  -3.176  -2.421  0.00  0.00    +0.144 HD
ATOM     13  H   UNL     1     -17.748  -4.579  -1.792  0.00  0.00    +0.144 HD
ENDBRANCH  10  11
BRANCH   1  15
ATOM     14  O   UNL     1     -15.219  -1.905  -0.527  0.00  0.00    -0.292 OA
ATOM     15  C   UNL     1     -15.205  -2.275  -1.740  0.00  0.00    +0.172 C 
BRANCH  15  16
ATOM     16  C   UNL     1     -14.591  -1.027  -3.111  0.00  0.00    +0.084 C 
BRANCH  16  17
ATOM     17  C   UNL     1     -15.141   0.619  -3.611  0.00  0.00    +0.004 C 
ATOM     18  C   UNL     1     -13.496   0.484  -2.915  0.00  0.00    +0.000 C 
ATOM     19  C   UNL     1     -14.591  -1.027  -3.111  0.00  0.00    +0.031 C 
ATOM     20  C   UNL     1     -14.932  -1.476  -4.917  0.00  0.00    -0.031 C 
ATOM     21  C   UNL     1     -14.379  -0.659  -5.911  0.00  0.00    -0.031 C 
ATOM     22  C   UNL     1     -13.804   0.602  -5.469  0.00  0.00    +0.031 C 
ATOM     23  C   UNL     1     -13.819   1.167  -4.072  0.00  0.00    +0.000 C 
ENDBRANCH  16  17
ENDBRANCH  15  16
ENDBRANCH   1  15
TORSDOF 4
ENDMDL
MODEL 2
REMARK VINA RESULT:      -7.7     14.717     17.024
REMARK  Name = min_compound928.pdb
REMARK  5 active torsions:
REMARK  status: ('A' for Active; 'I' for Inactive)
REMARK    1  A    between atoms: _2  and  _4
REMARK    2  A    between atoms: _2  and  _19
REMARK    3  A    between atoms: _3  and  _20
REMARK    4  A    between atoms: _6  and  _21
REMARK    5  A    between atoms: _18  and  _19
REMARK                            x       y       z     vdW  Elec       q    Type
REMARK                         _______ _______ _______ _____ _____    ______ ____
ROOT
ATOM      1  C   UNL     1     -12.709   4.100 -17.256  0.00  0.00    +0.119 A 
ATOM      2  C   UNL     1     -11.571   5.065 -17.242  0.00  0.00    +0.266 A 
ATOM      3  N   UNL     1     -11.555   5.957 -18.274  0.00  0.00    -0.274 N 
ATOM      4  C   UNL     1     -12.218   5.776 -19.446  0.00  0.00    +0.330 A 
ATOM      5  O   UNL     1     -11.924   6.464 -20.426  0.00  0.00    -0.246 OA
ATOM      6  N   UNL     1     -13.195   4.794 -19.450  0.00  0.00    -0.285 N 
ATOM      7  C   UNL     1     -13.981   4.552 -20.704  0.00  0.00    +0.155 C 
ATOM      8  H   UNL     1     -10.774   6.589 -18.291  0.00  0.00    +0.173 HD
ATOM      9  O   UNL     1     -10.666   5.093 -16.412  0.00  0.00    -0.267 OA
ATOM     10  C   UNL     1     -13.496   4.021 -18.357  0.00  0.00    +0.116 A 
ENDROOT
BRANCH  10  11
ATOM     11  N   UNL     1     -14.584   3.138 -18.440  0.00  0.00    -0.344 N 
ATOM     12  H   UNL     1     -14.357   2.317 -17.890  0.00  0.00    +0.144 HD
ATOM     13  H   UNL     1     -14.585   2.803 -19.421  0.00  0.00    +0.144 HD
ENDBRANCH  10  11
BRANCH   1  15
ATOM     14  O   UNL     1     -13.885   2.875 -15.646  0.00  0.00    -0.292 OA
ATOM     15  C   UNL     1     -12.774   3.059 -16.229  0.00  0.00    +0.172 C 
BRANCH  15  16
ATOM     16  C   UNL     1     -11.618   1.525 -16.586  0.00  0.00    +0.084 C 
BRANCH  16  17
ATOM     17  C   UNL     1     -10.840   0.296 -15.516  0.00  0.00    +0.004 C 
ATOM     18  C   UNL     1     -12.240  -0.243 -16.495  0.00  0.00    +0.000 C 
ATOM     19  C   UNL     1     -11.618   1.525 -16.586  0.00  0.00    +0.031 C 
ATOM     20  C   UNL     1      -9.890   1.673 -17.344  0.00  0.00    -0.031 C 
ATOM     21  C   UNL     1      -9.243   0.494 -17.733  0.00  0.00    -0.031 C 
ATOM     22  C   UNL     1      -9.845  -0.754 -17.290  0.00  0.00    +0.031 C 
ATOM     23  C   UNL     1     -11.039  -0.915 -16.384  0.00  0.00    +0.000 C 
ENDBRANCH  16  17
ENDBRANCH  15  16
ENDBRANCH   1  15
TORSDOF 4
ENDMDL
MODEL 3
REMARK VINA RESULT:      -7.6     15.028     17.182
REMARK  Name = min_compound928.pdb
REMARK  5 active torsions:
REMARK  status: ('A' for Active; 'I' for Inactive)
REMARK    1  A    between atoms: _2  and  _4
REMARK    2  A    between atoms: _2  and  _19
REMARK    3  A    between atoms: _3  and  _20
REMARK    4  A    between atoms: _6  and  _21
REMARK    5  A    between atoms: _18  and  _19
REMARK                            x       y       z     vdW  Elec       q    Type
REMARK                         _______ _______ _______ _____ _____    ______ ____
ROOT
ATOM      1  C   UNL     1     -12.942   4.223 -17.511  0.00  0.00    +0.119 A 
ATOM      2  C   UNL     1     -11.810   5.195 -17.501  0.00  0.00    +0.266 A 
ATOM      3  N   UNL     1     -11.739   6.013 -18.590  0.00  0.00    -0.274 N 
ATOM      4  C   UNL     1     -12.335   5.746 -19.782  0.00  0.00    +0.330 A 
ATOM      5  O   UNL     1     -11.989   6.367 -20.790  0.00  0.00    -0.246 OA
ATOM      6  N   UNL     1     -13.307   4.759 -19.772  0.00  0.00    -0.285 N 
ATOM      7  C   UNL     1     -14.021   4.424 -21.048  0.00  0.00    +0.155 C 
ATOM      8  H   UNL     1     -10.961   6.649 -18.608  0.00  0.00    +0.173 HD
ATOM      9  O   UNL     1     -10.953   5.287 -16.626  0.00  0.00    -0.267 OA
ATOM     10  C   UNL     1     -13.665   4.062 -18.646  0.00  0.00    +0.116 A 
ENDROOT
BRANCH  10  11
ATOM     11  N   UNL     1     -14.744   3.167 -18.728  0.00  0.00    -0.344 N 
ATOM     12  H   UNL     1     -14.375   2.264 -19.005  0.00  0.00    +0.144 HD
ATOM     13  H   UNL     1     -15.296   3.484 -19.546  0.00  0.00    +0.144 HD
ENDBRANCH  10  11
BRANCH   1  15
ATOM     14  O   UNL     1     -14.199   3.112 -15.880  0.00  0.00    -0.292 OA
ATOM     15  C   UNL     1     -13.060   3.255 -16.420  0.00  0.00    +0.172 C 
BRANCH  15  16
ATOM     16  C   UNL     1     -11.895   1.699 -16.614  0.00  0.00    +0.084 C 
BRANCH  16  17
ATOM     17  C   UNL     1     -10.940   1.043 -18.000  0.00  0.00    +0.004 C 
ATOM     18  C   UNL     1     -10.039   1.941 -16.738  0.00  0.00    +0.000 C 
ATOM     19  C   UNL     1     -11.895   1.699 -16.614  0.00  0.00    +0.031 C 
ATOM     20  C   UNL     1     -12.400  -0.107 -16.362  0.00  0.00    -0.031 C 
ATOM     21  C   UNL     1     -11.385  -1.070 -16.316  0.00  0.00    -0.031 C 
ATOM     22  C   UNL     1     -10.057  -0.634 -16.717  0.00  0.00    +0.031 C 
ATOM     23  C   UNL     1      -9.671   0.717 -17.263  0.00  0.00    +0.000 C 
ENDBRANCH  16  17
ENDBRANCH  15  16
ENDBRANCH   1  15
TORSDOF 4
ENDMDL
MODEL 4
REMARK VINA RESULT:      -7.5     15.151     17.621
REMARK  Name = min_compound928.pdb
REMARK  5 active torsions:
REMARK  status: ('A' for Active; 'I' for Inactive)
REMARK    1  A    between atoms: _2  and  _4
REMARK    2  A    between atoms: _2  and  _19
REMARK    3  A    between atoms: _3  and  _20
REMARK    4  A    between atoms: _6  and  _21
REMARK    5  A    between atoms: _18  and  _19
REMARK                            x       y       z     vdW  Elec       q    Type
REMARK                         _______ _______ _______ _____ _____    ______ ____
ROOT
ATOM      1  C   UNL     1     -12.977   3.678 -18.418  0.00  0.00    +0.119 A 
ATOM      2  C   UNL     1     -13.585   3.358 -19.743  0.00  0.00    +0.266 A 
ATOM      3  N   UNL     1     -13.296   4.240 -20.741  0.00  0.00    -0.274 N 
ATOM      4  C   UNL     1     -12.868   5.513 -20.531  0.00  0.00    +0.330 A 
ATOM      5  O   UNL     1     -12.913   6.332 -21.453  0.00  0.00    -0.246 OA
ATOM      6  N   UNL     1     -12.412   5.802 -19.255  0.00  0.00    -0.285 N 
ATOM      7  C   UNL     1     -11.907   7.182 -18.956  0.00  0.00    +0.155 C 
ATOM      8  H   UNL     1     -13.727   4.051 -21.628  0.00  0.00    +0.173 HD
ATOM      9  O   UNL     1     -14.322   2.405 -19.980  0.00  0.00    -0.267 OA
ATOM     10  C   UNL     1     -12.389   4.886 -18.234  0.00  0.00    +0.116 A 
ENDROOT
BRANCH  10  11
ATOM     11  N   UNL     1     -11.797   5.255 -17.016  0.00  0.00    -0.344 N 
ATOM     12  H   UNL     1     -11.249   6.092 -17.182  0.00  0.00    +0.144 HD
ATOM     13  H   UNL     1     -11.094   4.518 -16.824  0.00  0.00    +0.144 HD
ENDBRANCH  10  11
BRANCH   1  15
ATOM     14  O   UNL     1     -14.510   2.631 -16.994  0.00  0.00    -0.292 OA
ATOM     15  C   UNL     1     -13.287   2.829 -17.267  0.00  0.00    +0.172 C 
BRANCH  15  16
ATOM     16  C   UNL     1     -11.999   1.389 -16.978  0.00  0.00    +0.084 C 
BRANCH  16  17
ATOM     17  C   UNL     1     -10.821   0.557 -18.063  0.00  0.00    +0.004 C 
ATOM     18  C   UNL     1     -10.170   1.803 -16.952  0.00  0.00    +0.000 C 
ATOM     19  C   UNL     1     -11.999   1.389 -16.978  0.00  0.00    +0.031 C 
ATOM     20  C   UNL     1     -12.379  -0.363 -16.372  0.00  0.00    -0.031 C 
ATOM     21  C   UNL     1     -11.302  -1.174 -15.996  0.00  0.00    -0.031 C 
ATOM     22  C   UNL     1      -9.975  -0.691 -16.341  0.00  0.00    +0.031 C 
ATOM     23  C   UNL     1      -9.635   0.543 -17.139  0.00  0.00    +0.000 C 
ENDBRANCH  16  17
ENDBRANCH  15  16
ENDBRANCH   1  15
TORSDOF 4
ENDMDL
MODEL 5
REMARK VINA RESULT:      -7.5     14.838     16.788
REMARK  Name = min_compound928.pdb
REMARK  5 active torsions:
REMARK  status: ('A' for Active; 'I' for Inactive)
REMARK    1  A    between atoms: _2  and  _4
REMARK    2  A    between atoms: _2  and  _19
REMARK    3  A    between atoms: _3  and  _20
REMARK    4  A    between atoms: _6  and  _21
REMARK    5  A    between atoms: _18  and  _19
REMARK                            x       y       z     vdW  Elec       q    Type
REMARK                         _______ _______ _______ _____ _____    ______ ____
ROOT
ATOM      1  C   UNL     1     -14.011   3.614 -18.038  0.00  0.00    +0.119 A 
ATOM      2  C   UNL     1     -14.981   3.573 -16.904  0.00  0.00    +0.266 A 
ATOM      3  N   UNL     1     -15.404   4.791 -16.459  0.00  0.00    -0.274 N 
ATOM      4  C   UNL     1     -14.740   5.955 -16.683  0.00  0.00    +0.330 A 
ATOM      5  O   UNL     1     -15.015   6.953 -16.012  0.00  0.00    -0.246 OA
ATOM      6  N   UNL     1     -13.769   5.925 -17.671  0.00  0.00    -0.285 N 
ATOM      7  C   UNL     1     -13.008   7.179 -17.985  0.00  0.00    +0.155 C 
ATOM      8  H   UNL     1     -16.032   4.774 -15.675  0.00  0.00    +0.173 HD
ATOM      9  O   UNL     1     -15.388   2.557 -16.348  0.00  0.00    -0.267 OA
ATOM     10  C   UNL     1     -13.460   4.801 -18.394  0.00  0.00    +0.116 A 
ENDROOT
BRANCH  10  11
ATOM     11  N   UNL     1     -12.541   4.915 -19.450  0.00  0.00    -0.344 N 
ATOM     12  H   UNL     1     -13.044   4.750 -20.314  0.00  0.00    +0.144 HD
ATOM     13  H   UNL     1     -11.915   4.096 -19.352  0.00  0.00    +0.144 HD
ENDBRANCH  10  11
BRANCH   1  15
ATOM     14  O   UNL     1     -13.361   2.213 -19.795  0.00  0.00    -0.292 OA
ATOM     15  C   UNL     1     -13.445   2.361 -18.538  0.00  0.00    +0.172 C 
BRANCH  15  16
ATOM     16  C   UNL     1     -12.049   1.612 -17.395  0.00  0.00    +0.084 C 
BRANCH  16  17
ATOM     17  C   UNL     1     -10.386   2.166 -16.962  0.00  0.00    +0.004 C 
ATOM     18  C   UNL     1     -11.656   2.339 -15.710  0.00  0.00    +0.000 C 
ATOM     19  C   UNL     1     -12.049   1.612 -17.395  0.00  0.00    +0.031 C 
ATOM     20  C   UNL     1     -11.202  -0.051 -17.709  0.00  0.00    -0.031 C 
ATOM     21  C   UNL     1     -10.369  -0.561 -16.706  0.00  0.00    -0.031 C 
ATOM     22  C   UNL     1     -10.029   0.345 -15.621  0.00  0.00    +0.031 C 
ATOM     23  C   UNL     1     -10.400   1.802 -15.503  0.00  0.00    +0.000 C 
ENDBRANCH  16  17
ENDBRANCH  15  16
ENDBRANCH   1  15
TORSDOF 4
ENDMDL
MODEL 6
REMARK VINA RESULT:      -7.5     13.962     15.333
REMARK  Name = min_compound928.pdb
REMARK  5 active torsions:
REMARK  status: ('A' for Active; 'I' for Inactive)
REMARK    1  A    between atoms: _2  and  _4
REMARK    2  A    between atoms: _2  and  _19
REMARK    3  A    between atoms: _3  and  _20
REMARK    4  A    between atoms: _6  and  _21
REMARK    5  A    between atoms: _18  and  _19
REMARK                            x       y       z     vdW  Elec       q    Type
REMARK                         _______ _______ _______ _____ _____    ______ ____
ROOT
ATOM      1  C   UNL     1     -14.753   3.509 -16.225  0.00  0.00    +0.119 A 
ATOM      2  C   UNL     1     -14.426   4.963 -16.309  0.00  0.00    +0.266 A 
ATOM      3  N   UNL     1     -15.064   5.754 -15.399  0.00  0.00    -0.274 N 
ATOM      4  C   UNL     1     -16.200   5.396 -14.744  0.00  0.00    +0.330 A 
ATOM      5  O   UNL     1     -16.872   6.258 -14.174  0.00  0.00    -0.246 OA
ATOM      6  N   UNL     1     -16.528   4.050 -14.781  0.00  0.00    -0.285 N 
ATOM      7  C   UNL     1     -17.759   3.580 -14.064  0.00  0.00    +0.155 C 
ATOM      8  H   UNL     1     -14.876   6.738 -15.469  0.00  0.00    +0.173 HD
ATOM      9  O   UNL     1     -13.672   5.481 -17.128  0.00  0.00    -0.267 OA
ATOM     10  C   UNL     1     -15.782   3.107 -15.439  0.00  0.00    +0.116 A 
ENDROOT
BRANCH  10  11
ATOM     11  N   UNL     1     -16.145   1.756 -15.311  0.00  0.00    -0.344 N 
ATOM     12  H   UNL     1     -17.081   1.725 -14.925  0.00  0.00    +0.144 HD
ATOM     13  H   UNL     1     -15.539   1.385 -14.557  0.00  0.00    +0.144 HD
ENDBRANCH  10  11
BRANCH   1  15
ATOM     14  O   UNL     1     -14.334   2.861 -18.434  0.00  0.00    -0.292 OA
ATOM     15  C   UNL     1     -14.173   2.590 -17.205  0.00  0.00    +0.172 C 
BRANCH  15  16
ATOM     16  C   UNL     1     -12.501   1.765 -16.622  0.00  0.00    +0.084 C 
BRANCH  16  17
ATOM     17  C   UNL     1     -10.788   1.941 -17.166  0.00  0.00    +0.004 C 
ATOM     18  C   UNL     1     -11.204   2.596 -15.551  0.00  0.00    +0.000 C 
ATOM     19  C   UNL     1     -12.501   1.765 -16.622  0.00  0.00    +0.031 C 
ATOM     20  C   UNL     1     -12.187  -0.083 -16.880  0.00  0.00    -0.031 C 
ATOM     21  C   UNL     1     -11.046  -0.642 -16.292  0.00  0.00    -0.031 C 
ATOM     22  C   UNL     1     -10.072   0.292 -15.749  0.00  0.00    +0.031 C 
ATOM     23  C   UNL     1     -10.113   1.796 -15.830  0.00  0.00    +0.000 C 
ENDBRANCH  16  17
ENDBRANCH  15  16
ENDBRANCH   1  15
TORSDOF 4
ENDMDL
MODEL 7
REMARK VINA RESULT:      -7.5     14.555     16.612
REMARK  Name = min_compound928.pdb
REMARK  5 active torsions:
REMARK  status: ('A' for Active; 'I' for Inactive)
REMARK    1  A    between atoms: _2  and  _4
REMARK    2  A    between atoms: _2  and  _19
REMARK    3  A    between atoms: _3  and  _20
REMARK    4  A    between atoms: _6  and  _21
REMARK    5  A    between atoms: _18  and  _19
REMARK                            x       y       z     vdW  Elec       q    Type
REMARK                         _______ _______ _______ _____ _____    ______ ____
ROOT
ATOM      1  C   UNL     1     -12.218   2.614 -17.166  0.00  0.00    +0.119 A 
ATOM      2  C   UNL     1     -11.779   2.962 -15.783  0.00  0.00    +0.266 A 
ATOM      3  N   UNL     1     -10.767   2.195 -15.286  0.00  0.00    -0.274 N 
ATOM      4  C   UNL     1     -10.438   0.966 -15.765  0.00  0.00    +0.330 A 
ATOM      5  O   UNL     1      -9.726   0.219 -15.091  0.00  0.00    -0.246 OA
ATOM      6  N   UNL     1     -10.956   0.636 -17.007  0.00  0.00    -0.285 N 
ATOM      7  C   UNL     1     -10.619  -0.696 -17.607  0.00  0.00    +0.155 C 
ATOM      8  H   UNL     1     -10.487   2.401 -14.343  0.00  0.00    +0.173 HD
ATOM      9  O   UNL     1     -12.266   3.841 -15.077  0.00  0.00    -0.267 OA
ATOM     10  C   UNL     1     -11.766   1.470 -17.735  0.00  0.00    +0.116 A 
ENDROOT
BRANCH  10  11
ATOM     11  N   UNL     1     -12.135   1.080 -19.033  0.00  0.00    -0.344 N 
ATOM     12  H   UNL     1     -11.697   0.186 -19.221  0.00  0.00    +0.144 HD
ATOM     13  H   UNL     1     -11.652   1.745 -19.662  0.00  0.00    +0.144 HD
ENDBRANCH  10  11
BRANCH   1  15
ATOM     14  O   UNL     1     -14.441   3.344 -17.118  0.00  0.00    -0.292 OA
ATOM     15  C   UNL     1     -13.346   3.335 -17.758  0.00  0.00    +0.172 C 
BRANCH  15  16
ATOM     16  C   UNL     1     -12.824   4.916 -18.779  0.00  0.00    +0.084 C 
BRANCH  16  17
ATOM     17  C   UNL     1     -13.286   6.659 -18.669  0.00  0.00    +0.004 C 
ATOM     18  C   UNL     1     -11.809   6.147 -17.792  0.00  0.00    +0.000 C 
ATOM     19  C   UNL     1     -12.824   4.916 -18.779  0.00  0.00    +0.031 C 
ATOM     20  C   UNL     1     -12.795   5.245 -20.643  0.00  0.00    -0.031 C 
ATOM     21  C   UNL     1     -12.067   6.349 -21.101  0.00  0.00    -0.031 C 
ATOM     22  C   UNL     1     -11.607   7.289 -20.091  0.00  0.00    +0.031 C 
ATOM     23  C   UNL     1     -11.906   7.253 -18.614  0.00  0.00    +0.000 C 
ENDBRANCH  16  17
ENDBRANCH  15  16
ENDBRANCH   1  15
TORSDOF 4
ENDMDL
MODEL 8
REMARK VINA RESULT:      -7.4     13.835     15.061
REMARK  Name = min_compound928.pdb
REMARK  5 active torsions:
REMARK  status: ('A' for Active; 'I' for Inactive)
REMARK    1  A    between atoms: _2  and  _4
REMARK    2  A    between atoms: _2  and  _19
REMARK    3  A    between atoms: _3  and  _20
REMARK    4  A    between atoms: _6  and  _21
REMARK    5  A    between atoms: _18  and  _19
REMARK                            x       y       z     vdW  Elec       q    Type
REMARK                         _______ _______ _______ _____ _____    ______ ____
ROOT
ATOM      1  C   UNL     1     -11.754   2.942 -16.964  0.00  0.00    +0.119 A 
ATOM      2  C   UNL     1     -10.885   3.195 -15.778  0.00  0.00    +0.266 A 
ATOM      3  N   UNL     1      -9.986   2.208 -15.496  0.00  0.00    -0.274 N 
ATOM      4  C   UNL     1     -10.102   0.928 -15.936  0.00  0.00    +0.330 A 
ATOM      5  O   UNL     1      -9.430   0.039 -15.407  0.00  0.00    -0.246 OA
ATOM      6  N   UNL     1     -11.001   0.714 -16.967  0.00  0.00    -0.285 N 
ATOM      7  C   UNL     1     -11.166  -0.672 -17.517  0.00  0.00    +0.155 C 
ATOM      8  H   UNL     1      -9.420   2.355 -14.680  0.00  0.00    +0.173 HD
ATOM      9  O   UNL     1     -10.938   4.182 -15.048  0.00  0.00    -0.267 OA
ATOM     10  C   UNL     1     -11.758   1.710 -17.530  0.00  0.00    +0.116 A 
ENDROOT
BRANCH  10  11
ATOM     11  N   UNL     1     -12.549   1.400 -18.648  0.00  0.00    -0.344 N 
ATOM     12  H   UNL     1     -11.952   1.436 -19.466  0.00  0.00    +0.144 HD
ATOM     13  H   UNL     1     -13.189   2.208 -18.757  0.00  0.00    +0.144 HD
ENDBRANCH  10  11
BRANCH   1  15
ATOM     14  O   UNL     1     -12.983   4.170 -18.532  0.00  0.00    -0.292 OA
ATOM     15  C   UNL     1     -12.797   3.911 -17.304  0.00  0.00    +0.172 C 
BRANCH  15  16
ATOM     16  C   UNL     1     -14.329   3.880 -16.093  0.00  0.00    +0.084 C 
BRANCH  16  17
ATOM     17  C   UNL     1     -14.487   4.072 -14.304  0.00  0.00    +0.004 C 
ATOM     18  C   UNL     1     -15.285   5.304 -15.332  0.00  0.00    +0.000 C 
ATOM     19  C   UNL     1     -14.329   3.880 -16.093  0.00  0.00    +0.031 C 
ATOM     20  C   UNL     1     -15.127   2.192 -15.785  0.00  0.00    -0.031 C 
ATOM     21  C   UNL     1     -16.303   2.153 -15.025  0.00  0.00    -0.031 C 
ATOM     22  C   UNL     1     -16.667   3.376 -14.330  0.00  0.00    +0.031 C 
ATOM     23  C   UNL     1     -15.872   4.655 -14.263  0.00  0.00    +0.000 C 
ENDBRANCH  16  17
ENDBRANCH  15  16
ENDBRANCH   1  15
TORSDOF 4
ENDMDL
MODEL 9
REMARK VINA RESULT:      -7.3     15.132     16.661
REMARK  Name = min_compound928.pdb
REMARK  5 active torsions:
REMARK  status: ('A' for Active; 'I' for Inactive)
REMARK    1  A    between atoms: _2  and  _4
REMARK    2  A    between atoms: _2  and  _19
REMARK    3  A    between atoms: _3  and  _20
REMARK    4  A    between atoms: _6  and  _21
REMARK    5  A    between atoms: _18  and  _19
REMARK                            x       y       z     vdW  Elec       q    Type
REMARK                         _______ _______ _______ _____ _____    ______ ____
ROOT
ATOM      1  C   UNL     1     -13.709   4.085 -17.519  0.00  0.00    +0.119 A 
ATOM      2  C   UNL     1     -12.751   5.177 -17.862  0.00  0.00    +0.266 A 
ATOM      3  N   UNL     1     -13.077   6.408 -17.375  0.00  0.00    -0.274 N 
ATOM      4  C   UNL     1     -14.329   6.763 -16.982  0.00  0.00    +0.330 A 
ATOM      5  O   UNL     1     -14.608   7.956 -16.838  0.00  0.00    -0.246 OA
ATOM      6  N   UNL     1     -15.223   5.725 -16.778  0.00  0.00    -0.285 N 
ATOM      7  C   UNL     1     -16.617   6.041 -16.325  0.00  0.00    +0.155 C 
ATOM      8  H   UNL     1     -12.456   7.156 -17.629  0.00  0.00    +0.173 HD
ATOM      9  O   UNL     1     -11.741   5.053 -18.550  0.00  0.00    -0.267 OA
ATOM     10  C   UNL     1     -14.904   4.404 -16.964  0.00  0.00    +0.116 A 
ENDROOT
BRANCH  10  11
ATOM     11  N   UNL     1     -15.853   3.430 -16.615  0.00  0.00    -0.344 N 
ATOM     12  H   UNL     1     -15.531   2.978 -15.766  0.00  0.00    +0.144 HD
ATOM     13  H   UNL     1     -15.772   2.700 -17.346  0.00  0.00    +0.144 HD
ENDBRANCH  10  11
BRANCH   1  15
ATOM     14  O   UNL     1     -13.647   2.571 -19.302  0.00  0.00    -0.292 OA
ATOM     15  C   UNL     1     -13.482   2.743 -18.056  0.00  0.00    +0.172 C 
BRANCH  15  16
ATOM     16  C   UNL     1     -12.073   1.751 -17.135  0.00  0.00    +0.084 C 
BRANCH  16  17
ATOM     17  C   UNL     1     -10.312   2.063 -16.885  0.00  0.00    +0.004 C 
ATOM     18  C   UNL     1     -11.402   2.367 -15.495  0.00  0.00    +0.000 C 
ATOM     19  C   UNL     1     -12.073   1.751 -17.135  0.00  0.00    +0.031 C 
ATOM     20  C   UNL     1     -11.501  -0.000 -17.569  0.00  0.00    -0.031 C 
ATOM     21  C   UNL     1     -10.641  -0.648 -16.674  0.00  0.00    -0.031 C 
ATOM     22  C   UNL     1     -10.063   0.171 -15.621  0.00  0.00    +0.031 C 
ATOM     23  C   UNL     1     -10.217   1.660 -15.439  0.00  0.00    +0.000 C 
ENDBRANCH  16  17
ENDBRANCH  15  16
ENDBRANCH   1  15
TORSDOF 4
ENDMDL
