MODEL 1
REMARK VINA RESULT:      -5.4      0.000      0.000
REMARK  Name = min_compound951.pdb
REMARK  0 active torsions:
REMARK  status: ('A' for Active; 'I' for Inactive)
REMARK                            x       y       z     vdW  Elec       q    Type
REMARK                         _______ _______ _______ _____ _____    ______ ____
ROOT
ATOM      1 CL   UNL     1     -11.948   6.302 -17.479  0.00  0.00    -0.080 Cl
ATOM      2  C   UNL     1     -12.039   4.590 -17.767  0.00  0.00    +0.081 A 
ATOM      3  C   UNL     1     -12.868   4.072 -18.782  0.00  0.00    +0.081 A 
ATOM      4  C   UNL     1     -12.938   2.683 -19.012  0.00  0.00    +0.088 A 
ATOM      5 CL   UNL     1     -13.922   1.960 -20.229  0.00  0.00    -0.080 Cl
ATOM      6  C   UNL     1     -12.161   1.857 -18.200  0.00  0.00    +0.107 A 
ATOM      7  N   UNL     1     -11.983   0.502 -18.139  0.00  0.00    -0.256 N 
ATOM      8  N   UNL     1     -11.119   0.158 -17.175  0.00  0.00    -0.067 NA
ATOM      9  N   UNL     1     -10.713   1.275 -16.585  0.00  0.00    -0.128 NA
ATOM     10  H   UNL     1     -12.405  -0.227 -18.706  0.00  0.00    +0.191 HD
ATOM     11  C   UNL     1     -11.334   2.337 -17.192  0.00  0.00    +0.134 A 
ATOM     12 CL   UNL     1     -13.820   5.142 -19.771  0.00  0.00    -0.080 Cl
ATOM     13  C   UNL     1     -11.274   3.719 -16.974  0.00  0.00    +0.090 A 
ATOM     14 CL   UNL     1     -10.225   4.200 -15.709  0.00  0.00    -0.080 Cl
ENDROOT
TORSDOF 0
ENDMDL
MODEL 2
REMARK VINA RESULT:      -5.1      0.419      3.197
REMARK  Name = min_compound951.pdb
REMARK  0 active torsions:
REMARK  status: ('A' for Active; 'I' for Inactive)
REMARK                            x       y       z     vdW  Elec       q    Type
REMARK                         _______ _______ _______ _____ _____    ______ ____
ROOT
ATOM      1 CL   UNL     1     -13.733   5.397 -19.835  0.00  0.00    -0.080 Cl
ATOM      2  C   UNL     1     -12.769   4.379 -18.808  0.00  0.00    +0.081 A 
ATOM      3  C   UNL     1     -11.836   4.934 -17.910  0.00  0.00    +0.081 A 
ATOM      4  C   UNL     1     -11.057   4.104 -17.079  0.00  0.00    +0.088 A 
ATOM      5 CL   UNL     1      -9.893   4.694 -15.953  0.00  0.00    -0.080 Cl
ATOM      6  C   UNL     1     -11.249   2.726 -17.185  0.00  0.00    +0.107 A 
ATOM      7  N   UNL     1     -10.686   1.651 -16.554  0.00  0.00    -0.256 N 
ATOM      8  N   UNL     1     -11.200   0.494 -16.994  0.00  0.00    -0.067 NA
ATOM      9  N   UNL     1     -12.106   0.785 -17.918  0.00  0.00    -0.128 NA
ATOM     10  H   UNL     1      -9.969   1.631 -15.837  0.00  0.00    +0.191 HD
ATOM     11  C   UNL     1     -12.161   2.148 -18.059  0.00  0.00    +0.134 A 
ATOM     12 CL   UNL     1     -11.631   6.660 -17.813  0.00  0.00    -0.080 Cl
ATOM     13  C   UNL     1     -12.928   2.985 -18.879  0.00  0.00    +0.090 A 
ATOM     14 CL   UNL     1     -14.018   2.168 -19.917  0.00  0.00    -0.080 Cl
ENDROOT
TORSDOF 0
ENDMDL
MODEL 3
REMARK VINA RESULT:      -5.0     12.073     12.700
REMARK  Name = min_compound951.pdb
REMARK  0 active torsions:
REMARK  status: ('A' for Active; 'I' for Inactive)
REMARK                            x       y       z     vdW  Elec       q    Type
REMARK                         _______ _______ _______ _____ _____    ______ ____
ROOT
ATOM      1 CL   UNL     1     -17.164   3.753  -6.227  0.00  0.00    -0.080 Cl
ATOM      2  C   UNL     1     -16.563   2.122  -6.235  0.00  0.00    +0.081 A 
ATOM      3  C   UNL     1     -16.865   1.247  -7.297  0.00  0.00    +0.081 A 
ATOM      4  C   UNL     1     -16.375  -0.075  -7.300  0.00  0.00    +0.088 A 
ATOM      5 CL   UNL     1     -16.693  -1.214  -8.554  0.00  0.00    -0.080 Cl
ATOM      6  C   UNL     1     -15.589  -0.472  -6.218  0.00  0.00    +0.107 A 
ATOM      7  N   UNL     1     -14.963  -1.644  -5.894  0.00  0.00    -0.256 N 
ATOM      8  N   UNL     1     -14.309  -1.551  -4.728  0.00  0.00    -0.067 NA
ATOM      9  N   UNL     1     -14.492  -0.322  -4.265  0.00  0.00    -0.128 NA
ATOM     10  H   UNL     1     -14.939  -2.520  -6.405  0.00  0.00    +0.191 HD
ATOM     11  C   UNL     1     -15.274   0.367  -5.156  0.00  0.00    +0.134 A 
ATOM     12 CL   UNL     1     -17.850   1.786  -8.627  0.00  0.00    -0.080 Cl
ATOM     13  C   UNL     1     -15.767   1.678  -5.167  0.00  0.00    +0.090 A 
ATOM     14 CL   UNL     1     -15.318   2.624  -3.811  0.00  0.00    -0.080 Cl
ENDROOT
TORSDOF 0
ENDMDL
MODEL 4
REMARK VINA RESULT:      -5.0     12.866     13.580
REMARK  Name = min_compound951.pdb
REMARK  0 active torsions:
REMARK  status: ('A' for Active; 'I' for Inactive)
REMARK                            x       y       z     vdW  Elec       q    Type
REMARK                         _______ _______ _______ _____ _____    ______ ____
ROOT
ATOM      1 CL   UNL     1     -13.684  -0.336  -5.605  0.00  0.00    -0.080 Cl
ATOM      2  C   UNL     1     -14.932   0.874  -5.588  0.00  0.00    +0.081 A 
ATOM      3  C   UNL     1     -16.002   0.821  -6.502  0.00  0.00    +0.081 A 
ATOM      4  C   UNL     1     -17.011   1.805  -6.484  0.00  0.00    +0.088 A 
ATOM      5 CL   UNL     1     -18.355   1.821  -7.563  0.00  0.00    -0.080 Cl
ATOM      6  C   UNL     1     -16.904   2.819  -5.533  0.00  0.00    +0.107 A 
ATOM      7  N   UNL     1     -17.675   3.908  -5.232  0.00  0.00    -0.256 N 
ATOM      8  N   UNL     1     -17.163   4.613  -4.215  0.00  0.00    -0.067 NA
ATOM      9  N   UNL     1     -16.049   4.005  -3.828  0.00  0.00    -0.128 NA
ATOM     10  H   UNL     1     -18.538   4.222  -5.665  0.00  0.00    +0.191 HD
ATOM     11  C   UNL     1     -15.862   2.899  -4.618  0.00  0.00    +0.134 A 
ATOM     12 CL   UNL     1     -16.094  -0.464  -7.673  0.00  0.00    -0.080 Cl
ATOM     13  C   UNL     1     -14.865   1.915  -4.647  0.00  0.00    +0.090 A 
ATOM     14 CL   UNL     1     -13.630   2.111  -3.476  0.00  0.00    -0.080 Cl
ENDROOT
TORSDOF 0
ENDMDL
MODEL 5
REMARK VINA RESULT:      -5.0      2.483      3.581
REMARK  Name = min_compound951.pdb
REMARK  0 active torsions:
REMARK  status: ('A' for Active; 'I' for Inactive)
REMARK                            x       y       z     vdW  Elec       q    Type
REMARK                         _______ _______ _______ _____ _____    ______ ____
ROOT
ATOM      1 CL   UNL     1     -14.895   1.883 -15.804  0.00  0.00    -0.080 Cl
ATOM      2  C   UNL     1     -13.236   1.773 -16.313  0.00  0.00    +0.081 A 
ATOM      3  C   UNL     1     -12.496   2.933 -16.618  0.00  0.00    +0.081 A 
ATOM      4  C   UNL     1     -11.151   2.839 -17.030  0.00  0.00    +0.088 A 
ATOM      5 CL   UNL     1     -10.171   4.200 -17.423  0.00  0.00    -0.080 Cl
ATOM      6  C   UNL     1     -10.594   1.563 -17.121  0.00  0.00    +0.107 A 
ATOM      7  N   UNL     1      -9.356   1.105 -17.476  0.00  0.00    -0.256 N 
ATOM      8  N   UNL     1      -9.284  -0.232 -17.412  0.00  0.00    -0.067 NA
ATOM      9  N   UNL     1     -10.469  -0.676 -17.015  0.00  0.00    -0.128 NA
ATOM     10  H   UNL     1      -8.536   1.629 -17.765  0.00  0.00    +0.191 HD
ATOM     11  C   UNL     1     -11.297   0.401 -16.827  0.00  0.00    +0.134 A 
ATOM     12 CL   UNL     1     -13.234   4.504 -16.490  0.00  0.00    -0.080 Cl
ATOM     13  C   UNL     1     -12.633   0.509 -16.419  0.00  0.00    +0.090 A 
ATOM     14 CL   UNL     1     -13.402  -0.983 -16.083  0.00  0.00    -0.080 Cl
ENDROOT
TORSDOF 0
ENDMDL
MODEL 6
REMARK VINA RESULT:      -4.9      2.248      4.056
REMARK  Name = min_compound951.pdb
REMARK  0 active torsions:
REMARK  status: ('A' for Active; 'I' for Inactive)
REMARK                            x       y       z     vdW  Elec       q    Type
REMARK                         _______ _______ _______ _____ _____    ______ ____
ROOT
ATOM      1 CL   UNL     1     -10.126   1.471 -15.339  0.00  0.00    -0.080 Cl
ATOM      2  C   UNL     1     -11.050   2.396 -16.485  0.00  0.00    +0.081 A 
ATOM      3  C   UNL     1     -10.900   3.795 -16.572  0.00  0.00    +0.081 A 
ATOM      4  C   UNL     1     -11.651   4.541 -17.502  0.00  0.00    +0.088 A 
ATOM      5 CL   UNL     1     -11.533   6.251 -17.679  0.00  0.00    -0.080 Cl
ATOM      6  C   UNL     1     -12.537   3.841 -18.322  0.00  0.00    +0.107 A 
ATOM      7  N   UNL     1     -13.401   4.226 -19.310  0.00  0.00    -0.256 N 
ATOM      8  N   UNL     1     -14.060   3.179 -19.826  0.00  0.00    -0.067 NA
ATOM      9  N   UNL     1     -13.644   2.092 -19.191  0.00  0.00    -0.128 NA
ATOM     10  H   UNL     1     -13.589   5.154 -19.673  0.00  0.00    +0.191 HD
ATOM     11  C   UNL     1     -12.707   2.464 -18.260  0.00  0.00    +0.134 A 
ATOM     12 CL   UNL     1      -9.781   4.625 -15.528  0.00  0.00    -0.080 Cl
ATOM     13  C   UNL     1     -11.955   1.735 -17.331  0.00  0.00    +0.090 A 
ATOM     14 CL   UNL     1     -12.244   0.047 -17.341  0.00  0.00    -0.080 Cl
ENDROOT
TORSDOF 0
ENDMDL
MODEL 7
REMARK VINA RESULT:      -4.9     12.669     13.589
REMARK  Name = min_compound951.pdb
REMARK  0 active torsions:
REMARK  status: ('A' for Active; 'I' for Inactive)
REMARK                            x       y       z     vdW  Elec       q    Type
REMARK                         _______ _______ _______ _____ _____    ______ ____
ROOT
ATOM      1 CL   UNL     1     -16.733   1.691  -8.923  0.00  0.00    -0.080 Cl
ATOM      2  C   UNL     1     -16.825   0.663  -7.524  0.00  0.00    +0.081 A 
ATOM      3  C   UNL     1     -15.678   0.392  -6.751  0.00  0.00    +0.081 A 
ATOM      4  C   UNL     1     -15.758  -0.442  -5.618  0.00  0.00    +0.088 A 
ATOM      5 CL   UNL     1     -14.410  -0.829  -4.614  0.00  0.00    -0.080 Cl
ATOM      6  C   UNL     1     -17.005  -0.980  -5.301  0.00  0.00    +0.107 A 
ATOM      7  N   UNL     1     -17.443  -1.806  -4.303  0.00  0.00    -0.256 N 
ATOM      8  N   UNL     1     -18.755  -2.057  -4.407  0.00  0.00    -0.067 NA
ATOM      9  N   UNL     1     -19.203  -1.404  -5.471  0.00  0.00    -0.128 NA
ATOM     10  H   UNL     1     -16.920  -2.224  -3.540  0.00  0.00    +0.191 HD
ATOM     11  C   UNL     1     -18.153  -0.732  -6.043  0.00  0.00    +0.134 A 
ATOM     12 CL   UNL     1     -14.142   1.086  -7.185  0.00  0.00    -0.080 Cl
ATOM     13  C   UNL     1     -18.060   0.099  -7.167  0.00  0.00    +0.090 A 
ATOM     14 CL   UNL     1     -19.534   0.337  -8.006  0.00  0.00    -0.080 Cl
ENDROOT
TORSDOF 0
ENDMDL
MODEL 8
REMARK VINA RESULT:      -4.9     13.013     14.045
REMARK  Name = min_compound951.pdb
REMARK  0 active torsions:
REMARK  status: ('A' for Active; 'I' for Inactive)
REMARK                            x       y       z     vdW  Elec       q    Type
REMARK                         _______ _______ _______ _____ _____    ______ ____
ROOT
ATOM      1 CL   UNL     1     -16.157  -0.585  -7.620  0.00  0.00    -0.080 Cl
ATOM      2  C   UNL     1     -16.124   0.692  -6.441  0.00  0.00    +0.081 A 
ATOM      3  C   UNL     1     -15.033   0.833  -5.560  0.00  0.00    +0.081 A 
ATOM      4  C   UNL     1     -15.011   1.870  -4.605  0.00  0.00    +0.088 A 
ATOM      5 CL   UNL     1     -13.722   2.119  -3.489  0.00  0.00    -0.080 Cl
ATOM      6  C   UNL     1     -16.103   2.737  -4.573  0.00  0.00    +0.107 A 
ATOM      7  N   UNL     1     -16.414   3.824  -3.802  0.00  0.00    -0.256 N 
ATOM      8  N   UNL     1     -17.598   4.350  -4.142  0.00  0.00    -0.067 NA
ATOM      9  N   UNL     1     -18.087   3.624  -5.139  0.00  0.00    -0.128 NA
ATOM     10  H   UNL     1     -15.883   4.250  -3.050  0.00  0.00    +0.191 HD
ATOM     11  C   UNL     1     -17.193   2.625  -5.427  0.00  0.00    +0.134 A 
ATOM     12 CL   UNL     1     -13.692  -0.274  -5.637  0.00  0.00    -0.080 Cl
ATOM     13  C   UNL     1     -17.201   1.589  -6.371  0.00  0.00    +0.090 A 
ATOM     14 CL   UNL     1     -18.591   1.544  -7.371  0.00  0.00    -0.080 Cl
ENDROOT
TORSDOF 0
ENDMDL
MODEL 9
REMARK VINA RESULT:      -4.8      6.231      7.033
REMARK  Name = min_compound951.pdb
REMARK  0 active torsions:
REMARK  status: ('A' for Active; 'I' for Inactive)
REMARK                            x       y       z     vdW  Elec       q    Type
REMARK                         _______ _______ _______ _____ _____    ______ ____
ROOT
ATOM      1 CL   UNL     1     -15.361   3.527 -14.816  0.00  0.00    -0.080 Cl
ATOM      2  C   UNL     1     -15.310   5.238 -15.116  0.00  0.00    +0.081 A 
ATOM      3  C   UNL     1     -14.658   5.752 -16.255  0.00  0.00    +0.081 A 
ATOM      4  C   UNL     1     -14.619   7.141 -16.494  0.00  0.00    +0.088 A 
ATOM      5 CL   UNL     1     -13.846   7.858 -17.858  0.00  0.00    -0.080 Cl
ATOM      6  C   UNL     1     -15.247   7.971 -15.566  0.00  0.00    +0.107 A 
ATOM      7  N   UNL     1     -15.404   9.327 -15.478  0.00  0.00    -0.256 N 
ATOM      8  N   UNL     1     -16.096   9.675 -14.384  0.00  0.00    -0.067 NA
ATOM      9  N   UNL     1     -16.404   8.561 -13.735  0.00  0.00    -0.128 NA
ATOM     10  H   UNL     1     -15.078  10.053 -16.107  0.00  0.00    +0.191 HD
ATOM     11  C   UNL     1     -15.898   7.496 -14.435  0.00  0.00    +0.134 A 
ATOM     12 CL   UNL     1     -13.888   4.677 -17.387  0.00  0.00    -0.080 Cl
ATOM     13  C   UNL     1     -15.929   6.113 -14.209  0.00  0.00    +0.090 A 
ATOM     14 CL   UNL     1     -16.756   5.638 -12.787  0.00  0.00    -0.080 Cl
ENDROOT
TORSDOF 0
ENDMDL
