MODEL 1
REMARK VINA RESULT:      -7.3      0.000      0.000
REMARK  Name = min_compound967.pdb
REMARK  3 active torsions:
REMARK  status: ('A' for Active; 'I' for Inactive)
REMARK    1  A    between atoms: _1  and  _2
REMARK    2  A    between atoms: _1  and  _17
REMARK    3  A    between atoms: _8  and  _18
REMARK                            x       y       z     vdW  Elec       q    Type
REMARK                         _______ _______ _______ _____ _____    ______ ____
ROOT
ATOM      1  N   UNL     1     -12.429   3.462 -15.671  0.00  0.00    -0.293 N 
ATOM      2  H   UNL     1     -12.235   3.442 -14.679  0.00  0.00    +0.151 HD
ATOM      3  C   UNL     1     -13.737   3.470 -16.106  0.00  0.00    +0.245 C 
ATOM      4  O   UNL     1     -14.114   3.549 -17.268  0.00  0.00    -0.270 OA
ENDROOT
BRANCH   3   5
ATOM      5  C   UNL     1     -14.751   3.394 -15.029  0.00  0.00    +0.037 A 
ATOM      6  C   UNL     1     -15.839   2.519 -15.129  0.00  0.00    +0.014 A 
ATOM      7  C   UNL     1     -16.800   2.494 -14.114  0.00  0.00    +0.021 A 
ATOM      8  C   UNL     1     -16.665   3.333 -13.007  0.00  0.00    +0.041 A 
ATOM      9  C   UNL     1     -15.583   4.209 -12.908  0.00  0.00    +0.021 A 
ATOM     10 CL   UNL     1     -17.850   3.296 -11.761  0.00  0.00    -0.084 Cl
ATOM     11  C   UNL     1     -14.628   4.247 -13.926  0.00  0.00    +0.014 A 
ENDBRANCH   3   5
BRANCH   1  12
ATOM     12  C   UNL     1     -11.273   3.471 -16.519  0.00  0.00    +0.089 C 
ATOM     13  C   UNL     1     -11.011   4.574 -17.519  0.00  0.00    +0.045 C 
ATOM     14  C   UNL     1     -10.287   4.590 -16.210  0.00  0.00    +0.045 C 
BRANCH  12  15
ATOM     15  N   UNL     1     -10.742   2.087 -16.695  0.00  0.00    -0.278 NA
ATOM     16  C   UNL     1     -10.657   1.335 -15.418  0.00  0.00    +0.114 C 
ATOM     17  C   UNL     1      -9.999  -0.039 -15.620  0.00  0.00    +0.175 C 
ATOM     18  O   UNL     1     -10.721  -0.832 -16.566  0.00  0.00    -0.377 OA
ATOM     19  C   UNL     1     -10.799  -0.145 -17.819  0.00  0.00    +0.175 C 
ATOM     20  C   UNL     1     -11.471   1.228 -17.659  0.00  0.00    +0.114 C 
ENDBRANCH  12  15
ENDBRANCH   1  12
TORSDOF 3
ENDMDL
MODEL 2
REMARK VINA RESULT:      -7.0      0.687      1.326
REMARK  Name = min_compound967.pdb
REMARK  3 active torsions:
REMARK  status: ('A' for Active; 'I' for Inactive)
REMARK    1  A    between atoms: _1  and  _2
REMARK    2  A    between atoms: _1  and  _17
REMARK    3  A    between atoms: _8  and  _18
REMARK                            x       y       z     vdW  Elec       q    Type
REMARK                         _______ _______ _______ _____ _____    ______ ____
ROOT
ATOM      1  N   UNL     1     -13.014   3.768 -15.901  0.00  0.00    -0.293 N 
ATOM      2  H   UNL     1     -12.685   4.078 -14.997  0.00  0.00    +0.151 HD
ATOM      3  C   UNL     1     -14.333   3.398 -16.052  0.00  0.00    +0.245 C 
ATOM      4  O   UNL     1     -14.875   3.058 -17.097  0.00  0.00    -0.270 OA
ENDROOT
BRANCH   3   5
ATOM      5  C   UNL     1     -15.140   3.452 -14.812  0.00  0.00    +0.037 A 
ATOM      6  C   UNL     1     -14.788   4.308 -13.762  0.00  0.00    +0.014 A 
ATOM      7  C   UNL     1     -15.548   4.313 -12.590  0.00  0.00    +0.021 A 
ATOM      8  C   UNL     1     -16.655   3.472 -12.475  0.00  0.00    +0.041 A 
ATOM      9  C   UNL     1     -17.006   2.615 -13.519  0.00  0.00    +0.021 A 
ATOM     10 CL   UNL     1     -17.588   3.483 -11.030  0.00  0.00    -0.084 Cl
ATOM     11  C   UNL     1     -16.241   2.597 -14.687  0.00  0.00    +0.014 A 
ENDBRANCH   3   5
BRANCH   1  12
ATOM     12  C   UNL     1     -12.022   3.745 -16.937  0.00  0.00    +0.089 C 
ATOM     13  C   UNL     1     -12.122   4.611 -18.171  0.00  0.00    +0.045 C 
ATOM     14  C   UNL     1     -11.221   5.036 -17.055  0.00  0.00    +0.045 C 
BRANCH  12  15
ATOM     15  N   UNL     1     -11.281   2.449 -16.925  0.00  0.00    -0.278 NA
ATOM     16  C   UNL     1     -11.039   1.937 -15.552  0.00  0.00    +0.114 C 
ATOM     17  C   UNL     1     -10.174   0.666 -15.575  0.00  0.00    +0.175 C 
ATOM     18  O   UNL     1     -10.787  -0.371 -16.345  0.00  0.00    -0.377 OA
ATOM     19  C   UNL     1     -11.011   0.084 -17.683  0.00  0.00    +0.175 C 
ATOM     20  C   UNL     1     -11.890   1.344 -17.702  0.00  0.00    +0.114 C 
ENDBRANCH  12  15
ENDBRANCH   1  12
TORSDOF 3
ENDMDL
MODEL 3
REMARK VINA RESULT:      -6.4      3.938      5.988
REMARK  Name = min_compound967.pdb
REMARK  3 active torsions:
REMARK  status: ('A' for Active; 'I' for Inactive)
REMARK    1  A    between atoms: _1  and  _2
REMARK    2  A    between atoms: _1  and  _17
REMARK    3  A    between atoms: _8  and  _18
REMARK                            x       y       z     vdW  Elec       q    Type
REMARK                         _______ _______ _______ _____ _____    ______ ____
ROOT
ATOM      1  N   UNL     1     -12.246   4.678 -18.118  0.00  0.00    -0.293 N 
ATOM      2  H   UNL     1     -11.388   4.390 -18.567  0.00  0.00    +0.151 HD
ATOM      3  C   UNL     1     -12.756   3.924 -17.083  0.00  0.00    +0.245 C 
ATOM      4  O   UNL     1     -13.751   4.184 -16.417  0.00  0.00    -0.270 OA
ENDROOT
BRANCH   3   5
ATOM      5  C   UNL     1     -11.985   2.700 -16.767  0.00  0.00    +0.037 A 
ATOM      6  C   UNL     1     -11.115   2.663 -15.671  0.00  0.00    +0.014 A 
ATOM      7  C   UNL     1     -10.373   1.506 -15.416  0.00  0.00    +0.021 A 
ATOM      8  C   UNL     1     -10.510   0.395 -16.250  0.00  0.00    +0.041 A 
ATOM      9  C   UNL     1     -11.373   0.431 -17.345  0.00  0.00    +0.021 A 
ATOM     10 CL   UNL     1      -9.596  -1.027 -15.931  0.00  0.00    -0.084 Cl
ATOM     11  C   UNL     1     -12.106   1.590 -17.611  0.00  0.00    +0.014 A 
ENDBRANCH   3   5
BRANCH   1  12
ATOM     12  C   UNL     1     -12.842   5.872 -18.645  0.00  0.00    +0.089 C 
ATOM     13  C   UNL     1     -13.012   7.125 -17.817  0.00  0.00    +0.045 C 
ATOM     14  C   UNL     1     -11.872   7.039 -18.782  0.00  0.00    +0.045 C 
BRANCH  12  15
ATOM     15  N   UNL     1     -13.729   5.548 -19.800  0.00  0.00    -0.278 NA
ATOM     16  C   UNL     1     -13.363   4.273 -20.469  0.00  0.00    +0.114 C 
ATOM     17  C   UNL     1     -14.221   4.032 -21.722  0.00  0.00    +0.175 C 
ATOM     18  O   UNL     1     -15.614   3.994 -21.403  0.00  0.00    -0.377 OA
ATOM     19  C   UNL     1     -16.005   5.221 -20.779  0.00  0.00    +0.175 C 
ATOM     20  C   UNL     1     -15.182   5.486 -19.509  0.00  0.00    +0.114 C 
ENDBRANCH  12  15
ENDBRANCH   1  12
TORSDOF 3
ENDMDL
MODEL 4
REMARK VINA RESULT:      -6.3      3.244      6.220
REMARK  Name = min_compound967.pdb
REMARK  3 active torsions:
REMARK  status: ('A' for Active; 'I' for Inactive)
REMARK    1  A    between atoms: _1  and  _2
REMARK    2  A    between atoms: _1  and  _17
REMARK    3  A    between atoms: _8  and  _18
REMARK                            x       y       z     vdW  Elec       q    Type
REMARK                         _______ _______ _______ _____ _____    ______ ____
ROOT
ATOM      1  N   UNL     1     -14.627   3.263 -16.377  0.00  0.00    -0.293 N 
ATOM      2  H   UNL     1     -14.897   2.299 -16.233  0.00  0.00    +0.151 HD
ATOM      3  C   UNL     1     -13.294   3.578 -16.527  0.00  0.00    +0.245 C 
ATOM      4  O   UNL     1     -12.833   4.689 -16.761  0.00  0.00    -0.270 OA
ENDROOT
BRANCH   3   5
ATOM      5  C   UNL     1     -12.365   2.430 -16.407  0.00  0.00    +0.037 A 
ATOM      6  C   UNL     1     -12.637   1.217 -17.051  0.00  0.00    +0.014 A 
ATOM      7  C   UNL     1     -11.761   0.140 -16.893  0.00  0.00    +0.021 A 
ATOM      8  C   UNL     1     -10.621   0.282 -16.102  0.00  0.00    +0.041 A 
ATOM      9  C   UNL     1     -10.350   1.488 -15.456  0.00  0.00    +0.021 A 
ATOM     10 CL   UNL     1      -9.546  -1.048 -15.911  0.00  0.00    -0.084 Cl
ATOM     11  C   UNL     1     -11.230   2.563 -15.601  0.00  0.00    +0.014 A 
ENDBRANCH   3   5
BRANCH   1  12
ATOM     12  C   UNL     1     -15.708   4.204 -16.395  0.00  0.00    +0.089 C 
ATOM     13  C   UNL     1     -16.074   4.993 -17.631  0.00  0.00    +0.045 C 
ATOM     14  C   UNL     1     -16.880   3.785 -17.273  0.00  0.00    +0.045 C 
BRANCH  12  15
ATOM     15  N   UNL     1     -15.997   4.696 -15.015  0.00  0.00    -0.278 NA
ATOM     16  C   UNL     1     -15.438   3.814 -13.960  0.00  0.00    +0.114 C 
ATOM     17  C   UNL     1     -15.854   4.287 -12.557  0.00  0.00    +0.175 C 
ATOM     18  O   UNL     1     -15.422   5.626 -12.306  0.00  0.00    -0.377 OA
ATOM     19  C   UNL     1     -15.966   6.507 -13.294  0.00  0.00    +0.175 C 
ATOM     20  C   UNL     1     -15.553   6.077 -14.710  0.00  0.00    +0.114 C 
ENDBRANCH  12  15
ENDBRANCH   1  12
TORSDOF 3
ENDMDL
MODEL 5
REMARK VINA RESULT:      -6.3      3.289      6.357
REMARK  Name = min_compound967.pdb
REMARK  3 active torsions:
REMARK  status: ('A' for Active; 'I' for Inactive)
REMARK    1  A    between atoms: _1  and  _2
REMARK    2  A    between atoms: _1  and  _17
REMARK    3  A    between atoms: _8  and  _18
REMARK                            x       y       z     vdW  Elec       q    Type
REMARK                         _______ _______ _______ _____ _____    ______ ____
ROOT
ATOM      1  N   UNL     1     -14.827   2.975 -16.308  0.00  0.00    -0.293 N 
ATOM      2  H   UNL     1     -15.042   1.988 -16.328  0.00  0.00    +0.151 HD
ATOM      3  C   UNL     1     -13.511   3.381 -16.251  0.00  0.00    +0.245 C 
ATOM      4  O   UNL     1     -13.106   4.536 -16.276  0.00  0.00    -0.270 OA
ENDROOT
BRANCH   3   5
ATOM      5  C   UNL     1     -12.523   2.280 -16.173  0.00  0.00    +0.037 A 
ATOM      6  C   UNL     1     -11.271   2.479 -15.578  0.00  0.00    +0.014 A 
ATOM      7  C   UNL     1     -10.346   1.432 -15.549  0.00  0.00    +0.021 A 
ATOM      8  C   UNL     1     -10.677   0.196 -16.106  0.00  0.00    +0.041 A 
ATOM      9  C   UNL     1     -11.922  -0.004 -16.703  0.00  0.00    +0.021 A 
ATOM     10 CL   UNL     1      -9.534  -1.089 -16.066  0.00  0.00    -0.084 Cl
ATOM     11  C   UNL     1     -12.844   1.044 -16.746  0.00  0.00    +0.014 A 
ENDBRANCH   3   5
BRANCH   1  12
ATOM     12  C   UNL     1     -15.963   3.849 -16.332  0.00  0.00    +0.089 C 
ATOM     13  C   UNL     1     -16.133   4.927 -17.377  0.00  0.00    +0.045 C 
ATOM     14  C   UNL     1     -16.880   3.640 -17.531  0.00  0.00    +0.045 C 
BRANCH  12  15
ATOM     15  N   UNL     1     -16.580   3.943 -14.976  0.00  0.00    -0.278 NA
ATOM     16  C   UNL     1     -16.442   2.690 -14.191  0.00  0.00    +0.114 C 
ATOM     17  C   UNL     1     -17.189   2.784 -12.851  0.00  0.00    +0.175 C 
ATOM     18  O   UNL     1     -16.707   3.871 -12.057  0.00  0.00    -0.377 OA
ATOM     19  C   UNL     1     -16.850   5.100 -12.777  0.00  0.00    +0.175 C 
ATOM     20  C   UNL     1     -16.098   5.051 -14.116  0.00  0.00    +0.114 C 
ENDBRANCH  12  15
ENDBRANCH   1  12
TORSDOF 3
ENDMDL
MODEL 6
REMARK VINA RESULT:      -6.0      6.439      9.186
REMARK  Name = min_compound967.pdb
REMARK  3 active torsions:
REMARK  status: ('A' for Active; 'I' for Inactive)
REMARK    1  A    between atoms: _1  and  _2
REMARK    2  A    between atoms: _1  and  _17
REMARK    3  A    between atoms: _8  and  _18
REMARK                            x       y       z     vdW  Elec       q    Type
REMARK                         _______ _______ _______ _____ _____    ______ ____
ROOT
ATOM      1  N   UNL     1     -17.354   2.060  -8.865  0.00  0.00    -0.293 N 
ATOM      2  H   UNL     1     -17.265   1.374  -9.603  0.00  0.00    +0.151 HD
ATOM      3  C   UNL     1     -17.040   3.377  -9.122  0.00  0.00    +0.245 C 
ATOM      4  O   UNL     1     -17.153   4.315  -8.342  0.00  0.00    -0.270 OA
ENDROOT
BRANCH   3   5
ATOM      5  C   UNL     1     -16.541   3.642 -10.491  0.00  0.00    +0.037 A 
ATOM      6  C   UNL     1     -15.452   4.495 -10.706  0.00  0.00    +0.014 A 
ATOM      7  C   UNL     1     -15.025   4.754 -12.011  0.00  0.00    +0.021 A 
ATOM      8  C   UNL     1     -15.680   4.158 -13.089  0.00  0.00    +0.041 A 
ATOM      9  C   UNL     1     -16.768   3.311 -12.877  0.00  0.00    +0.021 A 
ATOM     10 CL   UNL     1     -15.149   4.480 -14.693  0.00  0.00    -0.084 Cl
ATOM     11  C   UNL     1     -17.207   3.060 -11.576  0.00  0.00    +0.014 A 
ENDBRANCH   3   5
BRANCH   1  12
ATOM     12  C   UNL     1     -17.801   1.545  -7.603  0.00  0.00    +0.089 C 
ATOM     13  C   UNL     1     -19.149   1.895  -7.018  0.00  0.00    +0.045 C 
ATOM     14  C   UNL     1     -18.974   0.580  -7.709  0.00  0.00    +0.045 C 
BRANCH  12  15
ATOM     15  N   UNL     1     -16.636   1.155  -6.755  0.00  0.00    -0.278 NA
ATOM     16  C   UNL     1     -15.393   0.951  -7.541  0.00  0.00    +0.114 C 
ATOM     17  C   UNL     1     -14.247   0.437  -6.653  0.00  0.00    +0.175 C 
ATOM     18  O   UNL     1     -13.965   1.344  -5.584  0.00  0.00    -0.377 OA
ATOM     19  C   UNL     1     -15.140   1.543  -4.791  0.00  0.00    +0.175 C 
ATOM     20  C   UNL     1     -16.302   2.076  -5.643  0.00  0.00    +0.114 C 
ENDBRANCH  12  15
ENDBRANCH   1  12
TORSDOF 3
ENDMDL
MODEL 7
REMARK VINA RESULT:      -5.9     13.103     15.221
REMARK  Name = min_compound967.pdb
REMARK  3 active torsions:
REMARK  status: ('A' for Active; 'I' for Inactive)
REMARK    1  A    between atoms: _1  and  _2
REMARK    2  A    between atoms: _1  and  _17
REMARK    3  A    between atoms: _8  and  _18
REMARK                            x       y       z     vdW  Elec       q    Type
REMARK                         _______ _______ _______ _____ _____    ______ ____
ROOT
ATOM      1  N   UNL     1     -16.068  -1.765  -1.576  0.00  0.00    -0.293 N 
ATOM      2  H   UNL     1     -16.791  -1.331  -2.133  0.00  0.00    +0.151 HD
ATOM      3  C   UNL     1     -14.754  -1.671  -1.979  0.00  0.00    +0.245 C 
ATOM      4  O   UNL     1     -13.778  -2.099  -1.375  0.00  0.00    -0.270 OA
ENDROOT
BRANCH   3   5
ATOM      5  C   UNL     1     -14.545  -0.960  -3.261  0.00  0.00    +0.037 A 
ATOM      6  C   UNL     1     -14.177   0.391  -3.281  0.00  0.00    +0.014 A 
ATOM      7  C   UNL     1     -14.021   1.046  -4.505  0.00  0.00    +0.021 A 
ATOM      8  C   UNL     1     -14.225   0.350  -5.698  0.00  0.00    +0.041 A 
ATOM      9  C   UNL     1     -14.596  -0.994  -5.680  0.00  0.00    +0.021 A 
ATOM     10 CL   UNL     1     -14.030   1.162  -7.201  0.00  0.00    -0.084 Cl
ATOM     11  C   UNL     1     -14.766  -1.649  -4.459  0.00  0.00    +0.014 A 
ENDBRANCH   3   5
BRANCH   1  12
ATOM     12  C   UNL     1     -16.529  -2.451  -0.404  0.00  0.00    +0.089 C 
ATOM     13  C   UNL     1     -16.230  -1.959   0.993  0.00  0.00    +0.045 C 
ATOM     14  C   UNL     1     -17.572  -1.680   0.395  0.00  0.00    +0.045 C 
BRANCH  12  15
ATOM     15  N   UNL     1     -16.790  -3.889  -0.709  0.00  0.00    -0.278 NA
ATOM     16  C   UNL     1     -17.168  -4.119  -2.126  0.00  0.00    +0.114 C 
ATOM     17  C   UNL     1     -17.542  -5.590  -2.373  0.00  0.00    +0.175 C 
ATOM     18  O   UNL     1     -16.463  -6.468  -2.043  0.00  0.00    -0.377 OA
ATOM     19  C   UNL     1     -16.091  -6.288  -0.673  0.00  0.00    +0.175 C 
ATOM     20  C   UNL     1     -15.690  -4.832  -0.392  0.00  0.00    +0.114 C 
ENDBRANCH  12  15
ENDBRANCH   1  12
TORSDOF 3
ENDMDL
MODEL 8
REMARK VINA RESULT:      -5.8     11.498     13.369
REMARK  Name = min_compound967.pdb
REMARK  3 active torsions:
REMARK  status: ('A' for Active; 'I' for Inactive)
REMARK    1  A    between atoms: _1  and  _2
REMARK    2  A    between atoms: _1  and  _17
REMARK    3  A    between atoms: _8  and  _18
REMARK                            x       y       z     vdW  Elec       q    Type
REMARK                         _______ _______ _______ _____ _____    ______ ____
ROOT
ATOM      1  N   UNL     1     -14.809  -0.167  -3.663  0.00  0.00    -0.293 N 
ATOM      2  H   UNL     1     -13.930  -0.651  -3.780  0.00  0.00    +0.151 HD
ATOM      3  C   UNL     1     -15.758  -0.682  -2.806  0.00  0.00    +0.245 C 
ATOM      4  O   UNL     1     -16.837  -0.173  -2.528  0.00  0.00    -0.270 OA
ENDROOT
BRANCH   3   5
ATOM      5  C   UNL     1     -15.387  -1.965  -2.166  0.00  0.00    +0.037 A 
ATOM      6  C   UNL     1     -15.728  -2.228  -0.833  0.00  0.00    +0.014 A 
ATOM      7  C   UNL     1     -15.335  -3.433  -0.245  0.00  0.00    +0.021 A 
ATOM      8  C   UNL     1     -14.613  -4.367  -0.988  0.00  0.00    +0.041 A 
ATOM      9  C   UNL     1     -14.269  -4.106  -2.315  0.00  0.00    +0.021 A 
ATOM     10 CL   UNL     1     -14.133  -5.849  -0.258  0.00  0.00    -0.084 Cl
ATOM     11  C   UNL     1     -14.648  -2.898  -2.903  0.00  0.00    +0.014 A 
ENDBRANCH   3   5
BRANCH   1  12
ATOM     12  C   UNL     1     -14.956   1.029  -4.441  0.00  0.00    +0.089 C 
ATOM     13  C   UNL     1     -14.980   2.404  -3.814  0.00  0.00    +0.045 C 
ATOM     14  C   UNL     1     -13.718   1.917  -4.452  0.00  0.00    +0.045 C 
BRANCH  12  15
ATOM     15  N   UNL     1     -15.625   0.728  -5.741  0.00  0.00    -0.278 NA
ATOM     16  C   UNL     1     -15.523  -0.703  -6.125  0.00  0.00    +0.114 C 
ATOM     17  C   UNL     1     -16.119  -0.951  -7.520  0.00  0.00    +0.175 C 
ATOM     18  O   UNL     1     -17.493  -0.562  -7.580  0.00  0.00    -0.377 OA
ATOM     19  C   UNL     1     -17.623   0.821  -7.239  0.00  0.00    +0.175 C 
ATOM     20  C   UNL     1     -17.056   1.105  -5.839  0.00  0.00    +0.114 C 
ENDBRANCH  12  15
ENDBRANCH   1  12
TORSDOF 3
ENDMDL
MODEL 9
REMARK VINA RESULT:      -5.8      6.541      9.012
REMARK  Name = min_compound967.pdb
REMARK  3 active torsions:
REMARK  status: ('A' for Active; 'I' for Inactive)
REMARK    1  A    between atoms: _1  and  _2
REMARK    2  A    between atoms: _1  and  _17
REMARK    3  A    between atoms: _8  and  _18
REMARK                            x       y       z     vdW  Elec       q    Type
REMARK                         _______ _______ _______ _____ _____    ______ ____
ROOT
ATOM      1  N   UNL     1     -16.857   1.859  -8.981  0.00  0.00    -0.293 N 
ATOM      2  H   UNL     1     -16.767   1.211  -9.751  0.00  0.00    +0.151 HD
ATOM      3  C   UNL     1     -16.732   3.211  -9.214  0.00  0.00    +0.245 C 
ATOM      4  O   UNL     1     -16.872   4.105  -8.388  0.00  0.00    -0.270 OA
ENDROOT
BRANCH   3   5
ATOM      5  C   UNL     1     -16.419   3.575 -10.615  0.00  0.00    +0.037 A 
ATOM      6  C   UNL     1     -17.133   3.012 -11.679  0.00  0.00    +0.014 A 
ATOM      7  C   UNL     1     -16.793   3.347 -12.993  0.00  0.00    +0.021 A 
ATOM      8  C   UNL     1     -15.751   4.243 -13.235  0.00  0.00    +0.041 A 
ATOM      9  C   UNL     1     -15.036   4.802 -12.176  0.00  0.00    +0.021 A 
ATOM     10 CL   UNL     1     -15.338   4.652 -14.853  0.00  0.00    -0.084 Cl
ATOM     11  C   UNL     1     -15.363   4.460 -10.862  0.00  0.00    +0.014 A 
ENDBRANCH   3   5
BRANCH   1  12
ATOM     12  C   UNL     1     -17.101   1.257  -7.702  0.00  0.00    +0.089 C 
ATOM     13  C   UNL     1     -18.455   1.298  -7.033  0.00  0.00    +0.045 C 
ATOM     14  C   UNL     1     -18.036   0.055  -7.751  0.00  0.00    +0.045 C 
BRANCH  12  15
ATOM     15  N   UNL     1     -15.829   1.135  -6.930  0.00  0.00    -0.278 NA
ATOM     16  C   UNL     1     -15.955   1.619  -5.531  0.00  0.00    +0.114 C 
ATOM     17  C   UNL     1     -14.600   1.587  -4.805  0.00  0.00    +0.175 C 
ATOM     18  O   UNL     1     -14.049   0.268  -4.781  0.00  0.00    -0.377 OA
ATOM     19  C   UNL     1     -13.891  -0.218  -6.117  0.00  0.00    +0.175 C 
ATOM     20  C   UNL     1     -15.231  -0.221  -6.870  0.00  0.00    +0.114 C 
ENDBRANCH  12  15
ENDBRANCH   1  12
TORSDOF 3
ENDMDL
