MODEL 1
REMARK VINA RESULT:      -7.7      0.000      0.000
REMARK  Name = min_compound942.pdb
REMARK  3 active torsions:
REMARK  status: ('A' for Active; 'I' for Inactive)
REMARK    1  A    between atoms: _3  and  _12
REMARK    2  A    between atoms: _9  and  _13
REMARK    3  A    between atoms: _10  and  _14
REMARK                            x       y       z     vdW  Elec       q    Type
REMARK                         _______ _______ _______ _____ _____    ______ ____
ROOT
ATOM      1 CL   UNL     1     -17.293   5.254 -15.211  0.00  0.00    -0.076 Cl
ATOM      2  C   UNL     1     -15.732   4.621 -15.675  0.00  0.00    +0.126 A 
ATOM      3  C   UNL     1     -15.412   3.323 -15.428  0.00  0.00    +0.126 A 
ATOM      4  C   UNL     1     -16.306   2.317 -14.772  0.00  0.00    +0.088 C 
ATOM      5  O   UNL     1     -14.177   2.745 -15.770  0.00  0.00    -0.440 OA
ATOM      6  C   UNL     1     -13.212   3.499 -16.401  0.00  0.00    +0.234 A 
ATOM      7  N   UNL     1     -11.956   3.110 -16.838  0.00  0.00    -0.199 N 
ATOM      8  N   UNL     1     -11.315   4.325 -17.496  0.00  0.00    -0.168 NA
ATOM      9  C   UNL     1     -12.314   5.260 -17.345  0.00  0.00    +0.075 A 
ATOM     10  C   UNL     1     -12.014   6.609 -17.916  0.00  0.00    +0.068 C 
ATOM     11  C   UNL     1     -13.463   4.894 -16.720  0.00  0.00    +0.108 A 
ATOM     12  C   UNL     1     -14.742   5.479 -16.338  0.00  0.00    +0.214 A 
ATOM     13  O   UNL     1     -14.986   6.705 -16.499  0.00  0.00    -0.285 OA
ENDROOT
BRANCH   7  14
ATOM     14  C   UNL     1     -11.312   1.852 -16.747  0.00  0.00    +0.069 A 
ATOM     15  C   UNL     1     -11.334   0.902 -17.777  0.00  0.00    +0.028 A 
ATOM     16  C   UNL     1     -10.684  -0.335 -17.656  0.00  0.00    +0.002 A 
ATOM     17  C   UNL     1      -9.991  -0.650 -16.493  0.00  0.00    +0.000 A 
ATOM     18  C   UNL     1      -9.952   0.271 -15.451  0.00  0.00    +0.002 A 
ATOM     19  C   UNL     1     -10.605   1.502 -15.584  0.00  0.00    +0.028 A 
ENDBRANCH   7  14
TORSDOF 1
ENDMDL
MODEL 2
REMARK VINA RESULT:      -7.4      3.119      3.612
REMARK  Name = min_compound942.pdb
REMARK  3 active torsions:
REMARK  status: ('A' for Active; 'I' for Inactive)
REMARK    1  A    between atoms: _3  and  _12
REMARK    2  A    between atoms: _9  and  _13
REMARK    3  A    between atoms: _10  and  _14
REMARK                            x       y       z     vdW  Elec       q    Type
REMARK                         _______ _______ _______ _____ _____    ______ ____
ROOT
ATOM      1 CL   UNL     1     -15.337   4.351 -22.389  0.00  0.00    -0.076 Cl
ATOM      2  C   UNL     1     -14.326   3.854 -21.052  0.00  0.00    +0.126 A 
ATOM      3  C   UNL     1     -14.002   2.544 -20.881  0.00  0.00    +0.126 A 
ATOM      4  C   UNL     1     -14.433   1.419 -21.770  0.00  0.00    +0.088 C 
ATOM      5  O   UNL     1     -13.197   2.071 -19.831  0.00  0.00    -0.440 OA
ATOM      6  C   UNL     1     -12.681   2.950 -18.905  0.00  0.00    +0.234 A 
ATOM      7  N   UNL     1     -11.854   2.686 -17.825  0.00  0.00    -0.199 N 
ATOM      8  N   UNL     1     -11.556   4.020 -17.153  0.00  0.00    -0.168 NA
ATOM      9  C   UNL     1     -12.264   4.881 -17.958  0.00  0.00    +0.075 A 
ATOM     10  C   UNL     1     -12.172   6.325 -17.582  0.00  0.00    +0.068 C 
ATOM     11  C   UNL     1     -12.959   4.373 -19.009  0.00  0.00    +0.108 A 
ATOM     12  C   UNL     1     -13.813   4.840 -20.093  0.00  0.00    +0.214 A 
ATOM     13  O   UNL     1     -14.171   6.044 -20.184  0.00  0.00    -0.285 OA
ENDROOT
BRANCH   7  14
ATOM     14  C   UNL     1     -11.329   1.455 -17.363  0.00  0.00    +0.069 A 
ATOM     15  C   UNL     1     -12.123   0.440 -16.812  0.00  0.00    +0.028 A 
ATOM     16  C   UNL     1     -11.571  -0.770 -16.366  0.00  0.00    +0.002 A 
ATOM     17  C   UNL     1     -10.202  -0.993 -16.462  0.00  0.00    +0.000 A 
ATOM     18  C   UNL     1      -9.387  -0.004 -17.003  0.00  0.00    +0.002 A 
ATOM     19  C   UNL     1      -9.949   1.199 -17.445  0.00  0.00    +0.028 A 
ENDBRANCH   7  14
TORSDOF 1
ENDMDL
MODEL 3
REMARK VINA RESULT:      -7.3      1.736      3.286
REMARK  Name = min_compound942.pdb
REMARK  3 active torsions:
REMARK  status: ('A' for Active; 'I' for Inactive)
REMARK    1  A    between atoms: _3  and  _12
REMARK    2  A    between atoms: _9  and  _13
REMARK    3  A    between atoms: _10  and  _14
REMARK                            x       y       z     vdW  Elec       q    Type
REMARK                         _______ _______ _______ _____ _____    ______ ____
ROOT
ATOM      1 CL   UNL     1     -14.545   8.037 -17.285  0.00  0.00    -0.076 Cl
ATOM      2  C   UNL     1     -14.145   6.349 -17.075  0.00  0.00    +0.126 A 
ATOM      3  C   UNL     1     -12.922   5.878 -17.439  0.00  0.00    +0.126 A 
ATOM      4  C   UNL     1     -11.815   6.697 -18.025  0.00  0.00    +0.088 C 
ATOM      5  O   UNL     1     -12.531   4.535 -17.301  0.00  0.00    -0.440 OA
ATOM      6  C   UNL     1     -13.402   3.613 -16.764  0.00  0.00    +0.234 A 
ATOM      7  N   UNL     1     -13.198   2.263 -16.524  0.00  0.00    -0.199 N 
ATOM      8  N   UNL     1     -14.472   1.723 -15.889  0.00  0.00    -0.168 NA
ATOM      9  C   UNL     1     -15.245   2.861 -15.849  0.00  0.00    +0.075 A 
ATOM     10  C   UNL     1     -16.602   2.687 -15.246  0.00  0.00    +0.068 C 
ATOM     11  C   UNL     1     -14.729   4.020 -16.332  0.00  0.00    +0.108 A 
ATOM     12  C   UNL     1     -15.122   5.413 -16.503  0.00  0.00    +0.214 A 
ATOM     13  O   UNL     1     -16.287   5.811 -16.239  0.00  0.00    -0.285 OA
ENDROOT
BRANCH   7  14
ATOM     14  C   UNL     1     -12.059   1.459 -16.775  0.00  0.00    +0.069 A 
ATOM     15  C   UNL     1     -10.833   1.979 -17.210  0.00  0.00    +0.028 A 
ATOM     16  C   UNL     1      -9.723   1.155 -17.448  0.00  0.00    +0.002 A 
ATOM     17  C   UNL     1      -9.817  -0.218 -17.254  0.00  0.00    +0.000 A 
ATOM     18  C   UNL     1     -11.022  -0.766 -16.825  0.00  0.00    +0.002 A 
ATOM     19  C   UNL     1     -12.122   0.067 -16.591  0.00  0.00    +0.028 A 
ENDBRANCH   7  14
TORSDOF 1
ENDMDL
MODEL 4
REMARK VINA RESULT:      -6.7     10.336     11.920
REMARK  Name = min_compound942.pdb
REMARK  3 active torsions:
REMARK  status: ('A' for Active; 'I' for Inactive)
REMARK    1  A    between atoms: _3  and  _12
REMARK    2  A    between atoms: _9  and  _13
REMARK    3  A    between atoms: _10  and  _14
REMARK                            x       y       z     vdW  Elec       q    Type
REMARK                         _______ _______ _______ _____ _____    ______ ____
ROOT
ATOM      1 CL   UNL     1     -19.086   5.135  -9.486  0.00  0.00    -0.076 Cl
ATOM      2  C   UNL     1     -18.244   4.677  -8.024  0.00  0.00    +0.126 A 
ATOM      3  C   UNL     1     -17.703   3.436  -7.899  0.00  0.00    +0.126 A 
ATOM      4  C   UNL     1     -17.744   2.360  -8.939  0.00  0.00    +0.088 C 
ATOM      5  O   UNL     1     -17.015   2.998  -6.754  0.00  0.00    -0.440 OA
ATOM      6  C   UNL     1     -16.850   3.844  -5.680  0.00  0.00    +0.234 A 
ATOM      7  N   UNL     1     -16.187   3.611  -4.486  0.00  0.00    -0.199 N 
ATOM      8  N   UNL     1     -16.278   4.891  -3.666  0.00  0.00    -0.168 NA
ATOM      9  C   UNL     1     -16.991   5.698  -4.522  0.00  0.00    +0.075 A 
ATOM     10  C   UNL     1     -17.251   7.083  -4.022  0.00  0.00    +0.068 C 
ATOM     11  C   UNL     1     -17.380   5.196  -5.722  0.00  0.00    +0.108 A 
ATOM     12  C   UNL     1     -18.109   5.624  -6.910  0.00  0.00    +0.214 A 
ATOM     13  O   UNL     1     -18.675   6.747  -6.972  0.00  0.00    -0.285 OA
ENDROOT
BRANCH   7  14
ATOM     14  C   UNL     1     -15.518   2.449  -4.031  0.00  0.00    +0.069 A 
ATOM     15  C   UNL     1     -14.141   2.408  -3.771  0.00  0.00    +0.028 A 
ATOM     16  C   UNL     1     -13.508   1.241  -3.318  0.00  0.00    +0.002 A 
ATOM     17  C   UNL     1     -14.245   0.079  -3.115  0.00  0.00    +0.000 A 
ATOM     18  C   UNL     1     -15.613   0.087  -3.367  0.00  0.00    +0.002 A 
ATOM     19  C   UNL     1     -16.233   1.258  -3.817  0.00  0.00    +0.028 A 
ENDBRANCH   7  14
TORSDOF 1
ENDMDL
MODEL 5
REMARK VINA RESULT:      -6.6      2.310      2.730
REMARK  Name = min_compound942.pdb
REMARK  3 active torsions:
REMARK  status: ('A' for Active; 'I' for Inactive)
REMARK    1  A    between atoms: _3  and  _12
REMARK    2  A    between atoms: _9  and  _13
REMARK    3  A    between atoms: _10  and  _14
REMARK                            x       y       z     vdW  Elec       q    Type
REMARK                         _______ _______ _______ _____ _____    ______ ____
ROOT
ATOM      1 CL   UNL     1     -17.440   5.809 -17.138  0.00  0.00    -0.076 Cl
ATOM      2  C   UNL     1     -16.113   4.700 -17.391  0.00  0.00    +0.126 A 
ATOM      3  C   UNL     1     -15.373   4.256 -16.340  0.00  0.00    +0.126 A 
ATOM      4  C   UNL     1     -15.591   4.628 -14.906  0.00  0.00    +0.088 C 
ATOM      5  O   UNL     1     -14.292   3.368 -16.466  0.00  0.00    -0.440 OA
ATOM      6  C   UNL     1     -13.932   2.888 -17.706  0.00  0.00    +0.234 A 
ATOM      7  N   UNL     1     -12.925   1.994 -18.032  0.00  0.00    -0.199 N 
ATOM      8  N   UNL     1     -12.985   1.783 -19.540  0.00  0.00    -0.168 NA
ATOM      9  C   UNL     1     -14.041   2.597 -19.875  0.00  0.00    +0.075 A 
ATOM     10  C   UNL     1     -14.396   2.614 -21.327  0.00  0.00    +0.068 C 
ATOM     11  C   UNL     1     -14.670   3.293 -18.892  0.00  0.00    +0.108 A 
ATOM     12  C   UNL     1     -15.774   4.232 -18.741  0.00  0.00    +0.214 A 
ATOM     13  O   UNL     1     -16.391   4.696 -19.736  0.00  0.00    -0.285 OA
ENDROOT
BRANCH   7  14
ATOM     14  C   UNL     1     -11.983   1.345 -17.198  0.00  0.00    +0.069 A 
ATOM     15  C   UNL     1     -11.126   2.031 -16.328  0.00  0.00    +0.028 A 
ATOM     16  C   UNL     1     -10.205   1.358 -15.513  0.00  0.00    +0.002 A 
ATOM     17  C   UNL     1     -10.120  -0.030 -15.551  0.00  0.00    +0.000 A 
ATOM     18  C   UNL     1     -10.956  -0.740 -16.406  0.00  0.00    +0.002 A 
ATOM     19  C   UNL     1     -11.871  -0.057 -17.215  0.00  0.00    +0.028 A 
ENDBRANCH   7  14
TORSDOF 1
ENDMDL
MODEL 6
REMARK VINA RESULT:      -6.5      1.940      2.454
REMARK  Name = min_compound942.pdb
REMARK  3 active torsions:
REMARK  status: ('A' for Active; 'I' for Inactive)
REMARK    1  A    between atoms: _3  and  _12
REMARK    2  A    between atoms: _9  and  _13
REMARK    3  A    between atoms: _10  and  _14
REMARK                            x       y       z     vdW  Elec       q    Type
REMARK                         _______ _______ _______ _____ _____    ______ ____
ROOT
ATOM      1 CL   UNL     1     -16.930   6.764 -12.733  0.00  0.00    -0.076 Cl
ATOM      2  C   UNL     1     -15.930   5.819 -13.810  0.00  0.00    +0.126 A 
ATOM      3  C   UNL     1     -15.096   4.863 -13.318  0.00  0.00    +0.126 A 
ATOM      4  C   UNL     1     -14.940   4.506 -11.872  0.00  0.00    +0.088 C 
ATOM      5  O   UNL     1     -14.262   4.067 -14.122  0.00  0.00    -0.440 OA
ATOM      6  C   UNL     1     -14.265   4.225 -15.490  0.00  0.00    +0.234 A 
ATOM      7  N   UNL     1     -13.544   3.527 -16.446  0.00  0.00    -0.199 N 
ATOM      8  N   UNL     1     -13.949   4.080 -17.806  0.00  0.00    -0.168 NA
ATOM      9  C   UNL     1     -14.867   5.035 -17.435  0.00  0.00    +0.075 A 
ATOM     10  C   UNL     1     -15.498   5.784 -18.564  0.00  0.00    +0.068 C 
ATOM     11  C   UNL     1     -15.131   5.211 -16.114  0.00  0.00    +0.108 A 
ATOM     12  C   UNL     1     -15.972   6.041 -15.261  0.00  0.00    +0.214 A 
ATOM     13  O   UNL     1     -16.673   6.977 -15.729  0.00  0.00    -0.285 OA
ENDROOT
BRANCH   7  14
ATOM     14  C   UNL     1     -12.601   2.482 -16.287  0.00  0.00    +0.069 A 
ATOM     15  C   UNL     1     -11.378   2.646 -15.623  0.00  0.00    +0.028 A 
ATOM     16  C   UNL     1     -10.466   1.590 -15.481  0.00  0.00    +0.002 A 
ATOM     17  C   UNL     1     -10.761   0.336 -16.005  0.00  0.00    +0.000 A 
ATOM     18  C   UNL     1     -11.966   0.142 -16.672  0.00  0.00    +0.002 A 
ATOM     19  C   UNL     1     -12.867   1.204 -16.807  0.00  0.00    +0.028 A 
ENDBRANCH   7  14
TORSDOF 1
ENDMDL
MODEL 7
REMARK VINA RESULT:      -6.5      2.239      3.139
REMARK  Name = min_compound942.pdb
REMARK  3 active torsions:
REMARK  status: ('A' for Active; 'I' for Inactive)
REMARK    1  A    between atoms: _3  and  _12
REMARK    2  A    between atoms: _9  and  _13
REMARK    3  A    between atoms: _10  and  _14
REMARK                            x       y       z     vdW  Elec       q    Type
REMARK                         _______ _______ _______ _____ _____    ______ ____
ROOT
ATOM      1 CL   UNL     1     -15.425   6.566 -20.325  0.00  0.00    -0.076 Cl
ATOM      2  C   UNL     1     -14.766   5.490 -19.115  0.00  0.00    +0.126 A 
ATOM      3  C   UNL     1     -13.879   4.519 -19.463  0.00  0.00    +0.126 A 
ATOM      4  C   UNL     1     -13.369   4.264 -20.848  0.00  0.00    +0.088 C 
ATOM      5  O   UNL     1     -13.310   3.618 -18.547  0.00  0.00    -0.440 OA
ATOM      6  C   UNL     1     -13.635   3.693 -17.211  0.00  0.00    +0.234 A 
ATOM      7  N   UNL     1     -13.166   2.922 -16.159  0.00  0.00    -0.199 N 
ATOM      8  N   UNL     1     -13.824   3.448 -14.890  0.00  0.00    -0.168 NA
ATOM      9  C   UNL     1     -14.592   4.470 -15.399  0.00  0.00    +0.075 A 
ATOM     10  C   UNL     1     -15.382   5.236 -14.388  0.00  0.00    +0.068 C 
ATOM     11  C   UNL     1     -14.564   4.705 -16.737  0.00  0.00    +0.108 A 
ATOM     12  C   UNL     1     -15.159   5.616 -17.706  0.00  0.00    +0.214 A 
ATOM     13  O   UNL     1     -16.042   6.451 -17.377  0.00  0.00    -0.285 OA
ENDROOT
BRANCH   7  14
ATOM     14  C   UNL     1     -12.247   1.844 -16.163  0.00  0.00    +0.069 A 
ATOM     15  C   UNL     1     -12.505   0.619 -16.791  0.00  0.00    +0.028 A 
ATOM     16  C   UNL     1     -11.573  -0.430 -16.778  0.00  0.00    +0.002 A 
ATOM     17  C   UNL     1     -10.352  -0.272 -16.131  0.00  0.00    +0.000 A 
ATOM     18  C   UNL     1     -10.067   0.932 -15.497  0.00  0.00    +0.002 A 
ATOM     19  C   UNL     1     -11.005   1.970 -15.517  0.00  0.00    +0.028 A 
ENDBRANCH   7  14
TORSDOF 1
ENDMDL
MODEL 8
REMARK VINA RESULT:      -6.3      8.354      9.839
REMARK  Name = min_compound942.pdb
REMARK  3 active torsions:
REMARK  status: ('A' for Active; 'I' for Inactive)
REMARK    1  A    between atoms: _3  and  _12
REMARK    2  A    between atoms: _9  and  _13
REMARK    3  A    between atoms: _10  and  _14
REMARK                            x       y       z     vdW  Elec       q    Type
REMARK                         _______ _______ _______ _____ _____    ______ ____
ROOT
ATOM      1 CL   UNL     1     -19.481   7.250  -6.059  0.00  0.00    -0.076 Cl
ATOM      2  C   UNL     1     -18.536   5.909  -6.664  0.00  0.00    +0.126 A 
ATOM      3  C   UNL     1     -18.378   4.783  -5.917  0.00  0.00    +0.126 A 
ATOM      4  C   UNL     1     -18.966   4.551  -4.560  0.00  0.00    +0.088 C 
ATOM      5  O   UNL     1     -17.633   3.668  -6.336  0.00  0.00    -0.440 OA
ATOM      6  C   UNL     1     -17.018   3.671  -7.569  0.00  0.00    +0.234 A 
ATOM      7  N   UNL     1     -16.270   2.670  -8.168  0.00  0.00    -0.199 N 
ATOM      8  N   UNL     1     -15.856   3.181  -9.541  0.00  0.00    -0.168 NA
ATOM      9  C   UNL     1     -16.439   4.427  -9.542  0.00  0.00    +0.075 A 
ATOM     10  C   UNL     1     -16.240   5.222 -10.792  0.00  0.00    +0.068 C 
ATOM     11  C   UNL     1     -17.139   4.823  -8.447  0.00  0.00    +0.108 A 
ATOM     12  C   UNL     1     -17.899   5.977  -7.984  0.00  0.00    +0.214 A 
ATOM     13  O   UNL     1     -17.962   7.042  -8.654  0.00  0.00    -0.285 OA
ENDROOT
BRANCH   7  14
ATOM     14  C   UNL     1     -15.916   1.388  -7.682  0.00  0.00    +0.069 A 
ATOM     15  C   UNL     1     -16.730   0.258  -7.833  0.00  0.00    +0.028 A 
ATOM     16  C   UNL     1     -16.349  -1.000  -7.342  0.00  0.00    +0.002 A 
ATOM     17  C   UNL     1     -15.134  -1.155  -6.684  0.00  0.00    +0.000 A 
ATOM     18  C   UNL     1     -14.304  -0.052  -6.516  0.00  0.00    +0.002 A 
ATOM     19  C   UNL     1     -14.695   1.198  -7.011  0.00  0.00    +0.028 A 
ENDBRANCH   7  14
TORSDOF 1
ENDMDL
MODEL 9
REMARK VINA RESULT:      -6.2      7.327      9.147
REMARK  Name = min_compound942.pdb
REMARK  3 active torsions:
REMARK  status: ('A' for Active; 'I' for Inactive)
REMARK    1  A    between atoms: _3  and  _12
REMARK    2  A    between atoms: _9  and  _13
REMARK    3  A    between atoms: _10  and  _14
REMARK                            x       y       z     vdW  Elec       q    Type
REMARK                         _______ _______ _______ _____ _____    ______ ____
ROOT
ATOM      1 CL   UNL     1     -16.754   6.862 -12.396  0.00  0.00    -0.076 Cl
ATOM      2  C   UNL     1     -16.775   5.732 -11.062  0.00  0.00    +0.126 A 
ATOM      3  C   UNL     1     -16.415   4.434 -11.251  0.00  0.00    +0.126 A 
ATOM      4  C   UNL     1     -15.969   3.835 -12.549  0.00  0.00    +0.088 C 
ATOM      5  O   UNL     1     -16.410   3.469 -10.229  0.00  0.00    -0.440 OA
ATOM      6  C   UNL     1     -16.773   3.818  -8.947  0.00  0.00    +0.234 A 
ATOM      7  N   UNL     1     -16.807   3.029  -7.809  0.00  0.00    -0.199 N 
ATOM      8  N   UNL     1     -17.249   3.922  -6.657  0.00  0.00    -0.168 NA
ATOM      9  C   UNL     1     -17.408   5.124  -7.306  0.00  0.00    +0.075 A 
ATOM     10  C   UNL     1     -17.832   6.265  -6.438  0.00  0.00    +0.068 C 
ATOM     11  C   UNL     1     -17.162   5.185  -8.640  0.00  0.00    +0.108 A 
ATOM     12  C   UNL     1     -17.181   6.165  -9.720  0.00  0.00    +0.214 A 
ATOM     13  O   UNL     1     -17.598   7.340  -9.542  0.00  0.00    -0.285 OA
ENDROOT
BRANCH   7  14
ATOM     14  C   UNL     1     -16.499   1.656  -7.647  0.00  0.00    +0.069 A 
ATOM     15  C   UNL     1     -17.353   0.624  -8.058  0.00  0.00    +0.028 A 
ATOM     16  C   UNL     1     -17.017  -0.727  -7.886  0.00  0.00    +0.002 A 
ATOM     17  C   UNL     1     -15.809  -1.077  -7.293  0.00  0.00    +0.000 A 
ATOM     18  C   UNL     1     -14.940  -0.076  -6.872  0.00  0.00    +0.002 A 
ATOM     19  C   UNL     1     -15.287   1.269  -7.050  0.00  0.00    +0.028 A 
ENDBRANCH   7  14
TORSDOF 1
ENDMDL
