MODEL 1
REMARK VINA RESULT:      -5.5      0.000      0.000
REMARK  Name = min_compound99.pdb
REMARK  3 active torsions:
REMARK  status: ('A' for Active; 'I' for Inactive)
REMARK    1  A    between atoms: _8  and  _11
REMARK    2  A    between atoms: _9  and  _13
REMARK    3  A    between atoms: _10  and  _12
REMARK                            x       y       z     vdW  Elec       q    Type
REMARK                         _______ _______ _______ _____ _____    ______ ____
ROOT
ATOM      1  N   UNL     1     -10.082   1.768 -17.397  0.00  0.00    +0.006 NA
ATOM      2  C   UNL     1     -11.119   2.531 -17.229  0.00  0.00    +0.391 C 
ATOM      3  C   UNL     1     -12.476   1.979 -16.800  0.00  0.00    +0.137 C 
ATOM      4  C   UNL     1     -12.521   0.526 -16.620  0.00  0.00    +0.099 C 
ATOM      5  C   UNL     1     -11.308  -0.203 -16.825  0.00  0.00    +0.078 C 
ATOM      6  N   UNL     1     -13.512   2.738 -16.613  0.00  0.00    -0.269 NA
ATOM      7  C   UNL     1     -13.310   4.082 -16.824  0.00  0.00    +0.172 C 
ATOM      8  C   UNL     1     -14.456   5.006 -16.579  0.00  0.00    +0.041 C 
ATOM      9  C   UNL     1     -11.981   4.617 -17.269  0.00  0.00    +0.152 C 
ATOM     10  C   UNL     1     -11.844   6.102 -17.510  0.00  0.00    +0.093 C 
ATOM     11  N   UNL     1     -10.938   3.875 -17.467  0.00  0.00    -0.042 NA
ATOM     12  C   UNL     1     -10.166   0.416 -17.181  0.00  0.00    +0.311 C 
ENDROOT
BRANCH  12  13
ATOM     13  N   UNL     1      -9.024  -0.329 -17.354  0.00  0.00    -0.247 N 
ATOM     14  H   UNL     1      -8.501   0.062 -18.136  0.00  0.00    +0.288 HD
ATOM     15  H   UNL     1      -9.204  -1.320 -17.470  0.00  0.00    +0.288 HD
ENDBRANCH  12  13
TORSDOF 1
ENDMDL
MODEL 2
REMARK VINA RESULT:      -5.4      1.140      4.428
REMARK  Name = min_compound99.pdb
REMARK  3 active torsions:
REMARK  status: ('A' for Active; 'I' for Inactive)
REMARK    1  A    between atoms: _8  and  _11
REMARK    2  A    between atoms: _9  and  _13
REMARK    3  A    between atoms: _10  and  _12
REMARK                            x       y       z     vdW  Elec       q    Type
REMARK                         _______ _______ _______ _____ _____    ______ ____
ROOT
ATOM      1  N   UNL     1     -11.042   4.354 -17.515  0.00  0.00    +0.006 NA
ATOM      2  C   UNL     1     -11.214   3.106 -17.202  0.00  0.00    +0.391 C 
ATOM      3  C   UNL     1     -12.542   2.578 -16.664  0.00  0.00    +0.137 C 
ATOM      4  C   UNL     1     -13.590   3.588 -16.506  0.00  0.00    +0.099 C 
ATOM      5  C   UNL     1     -13.279   4.929 -16.898  0.00  0.00    +0.078 C 
ATOM      6  N   UNL     1     -12.726   1.327 -16.365  0.00  0.00    -0.269 NA
ATOM      7  C   UNL     1     -11.645   0.502 -16.568  0.00  0.00    +0.172 C 
ATOM      8  C   UNL     1     -11.817  -0.953 -16.283  0.00  0.00    +0.041 C 
ATOM      9  C   UNL     1     -10.335   1.031 -17.073  0.00  0.00    +0.152 C 
ATOM     10  C   UNL     1      -9.184   0.068 -17.241  0.00  0.00    +0.093 C 
ATOM     11  N   UNL     1     -10.130   2.275 -17.370  0.00  0.00    -0.042 NA
ATOM     12  C   UNL     1     -12.067   5.257 -17.383  0.00  0.00    +0.311 C 
ENDROOT
BRANCH  12  13
ATOM     13  N   UNL     1     -11.822   6.558 -17.757  0.00  0.00    -0.247 N 
ATOM     14  H   UNL     1     -12.469   7.163 -17.254  0.00  0.00    +0.288 HD
ATOM     15  H   UNL     1     -11.863   6.702 -18.759  0.00  0.00    +0.288 HD
ENDBRANCH  12  13
TORSDOF 1
ENDMDL
MODEL 3
REMARK VINA RESULT:      -5.4      1.473      1.989
REMARK  Name = min_compound99.pdb
REMARK  3 active torsions:
REMARK  status: ('A' for Active; 'I' for Inactive)
REMARK    1  A    between atoms: _8  and  _11
REMARK    2  A    between atoms: _9  and  _13
REMARK    3  A    between atoms: _10  and  _12
REMARK                            x       y       z     vdW  Elec       q    Type
REMARK                         _______ _______ _______ _____ _____    ______ ____
ROOT
ATOM      1  N   UNL     1     -11.428   0.571 -17.958  0.00  0.00    +0.006 NA
ATOM      2  C   UNL     1     -12.109   1.617 -17.601  0.00  0.00    +0.391 C 
ATOM      3  C   UNL     1     -11.833   2.361 -16.297  0.00  0.00    +0.137 C 
ATOM      4  C   UNL     1     -10.766   1.789 -15.474  0.00  0.00    +0.099 C 
ATOM      5  C   UNL     1     -10.083   0.640 -15.983  0.00  0.00    +0.078 C 
ATOM      6  N   UNL     1     -12.498   3.419 -15.942  0.00  0.00    -0.269 NA
ATOM      7  C   UNL     1     -13.471   3.833 -16.822  0.00  0.00    +0.172 C 
ATOM      8  C   UNL     1     -14.235   5.069 -16.485  0.00  0.00    +0.041 C 
ATOM      9  C   UNL     1     -13.754   3.084 -18.091  0.00  0.00    +0.152 C 
ATOM     10  C   UNL     1     -14.858   3.582 -18.993  0.00  0.00    +0.093 C 
ATOM     11  N   UNL     1     -13.106   2.023 -18.459  0.00  0.00    -0.042 NA
ATOM     12  C   UNL     1     -10.412   0.094 -17.169  0.00  0.00    +0.311 C 
ENDROOT
BRANCH  12  13
ATOM     13  N   UNL     1      -9.717  -1.004 -17.620  0.00  0.00    -0.247 N 
ATOM     14  H   UNL     1      -8.794  -0.998 -17.189  0.00  0.00    +0.288 HD
ATOM     15  H   UNL     1      -9.668  -1.060 -18.631  0.00  0.00    +0.288 HD
ENDBRANCH  12  13
TORSDOF 1
ENDMDL
MODEL 4
REMARK VINA RESULT:      -5.4      1.829      2.496
REMARK  Name = min_compound99.pdb
REMARK  3 active torsions:
REMARK  status: ('A' for Active; 'I' for Inactive)
REMARK    1  A    between atoms: _8  and  _11
REMARK    2  A    between atoms: _9  and  _13
REMARK    3  A    between atoms: _10  and  _12
REMARK                            x       y       z     vdW  Elec       q    Type
REMARK                         _______ _______ _______ _____ _____    ______ ____
ROOT
ATOM      1  N   UNL     1     -12.199   1.464 -17.572  0.00  0.00    +0.006 NA
ATOM      2  C   UNL     1     -12.163   2.754 -17.711  0.00  0.00    +0.391 C 
ATOM      3  C   UNL     1     -11.333   3.649 -16.795  0.00  0.00    +0.137 C 
ATOM      4  C   UNL     1     -10.606   2.944 -15.737  0.00  0.00    +0.099 C 
ATOM      5  C   UNL     1     -10.718   1.519 -15.696  0.00  0.00    +0.078 C 
ATOM      6  N   UNL     1     -11.279   4.939 -16.940  0.00  0.00    -0.269 NA
ATOM      7  C   UNL     1     -12.019   5.452 -17.979  0.00  0.00    +0.172 C 
ATOM      8  C   UNL     1     -11.957   6.923 -18.219  0.00  0.00    +0.041 C 
ATOM      9  C   UNL     1     -12.853   4.570 -18.862  0.00  0.00    +0.152 C 
ATOM     10  C   UNL     1     -13.662   5.210 -19.965  0.00  0.00    +0.093 C 
ATOM     11  N   UNL     1     -12.925   3.283 -18.729  0.00  0.00    -0.042 NA
ATOM     12  C   UNL     1     -11.471   0.846 -16.587  0.00  0.00    +0.311 C 
ENDROOT
BRANCH  12  13
ATOM     13  N   UNL     1     -11.536  -0.526 -16.512  0.00  0.00    -0.247 N 
ATOM     14  H   UNL     1     -10.615  -0.903 -16.730  0.00  0.00    +0.288 HD
ATOM     15  H   UNL     1     -12.262  -0.925 -17.095  0.00  0.00    +0.288 HD
ENDBRANCH  12  13
TORSDOF 1
ENDMDL
MODEL 5
REMARK VINA RESULT:      -5.3      1.736      1.833
REMARK  Name = min_compound99.pdb
REMARK  3 active torsions:
REMARK  status: ('A' for Active; 'I' for Inactive)
REMARK    1  A    between atoms: _8  and  _11
REMARK    2  A    between atoms: _9  and  _13
REMARK    3  A    between atoms: _10  and  _12
REMARK                            x       y       z     vdW  Elec       q    Type
REMARK                         _______ _______ _______ _____ _____    ______ ____
ROOT
ATOM      1  N   UNL     1     -10.649   2.754 -16.108  0.00  0.00    +0.006 NA
ATOM      2  C   UNL     1     -11.350   3.359 -17.019  0.00  0.00    +0.391 C 
ATOM      3  C   UNL     1     -12.263   2.602 -17.980  0.00  0.00    +0.137 C 
ATOM      4  C   UNL     1     -12.265   1.147 -17.812  0.00  0.00    +0.099 C 
ATOM      5  C   UNL     1     -11.457   0.602 -16.764  0.00  0.00    +0.078 C 
ATOM      6  N   UNL     1     -12.980   3.202 -18.881  0.00  0.00    -0.269 NA
ATOM      7  C   UNL     1     -12.868   4.572 -18.914  0.00  0.00    +0.172 C 
ATOM      8  C   UNL     1     -13.704   5.315 -19.901  0.00  0.00    +0.041 C 
ATOM      9  C   UNL     1     -11.951   5.310 -17.984  0.00  0.00    +0.152 C 
ATOM     10  C   UNL     1     -11.859   6.813 -18.101  0.00  0.00    +0.093 C 
ATOM     11  N   UNL     1     -11.223   4.728 -17.083  0.00  0.00    -0.042 NA
ATOM     12  C   UNL     1     -10.713   1.391 -15.967  0.00  0.00    +0.311 C 
ENDROOT
BRANCH  12  13
ATOM     13  N   UNL     1      -9.963   0.819 -14.966  0.00  0.00    -0.247 N 
ATOM     14  H   UNL     1      -9.027   1.222 -14.995  0.00  0.00    +0.288 HD
ATOM     15  H   UNL     1      -9.944  -0.193 -15.007  0.00  0.00    +0.288 HD
ENDBRANCH  12  13
TORSDOF 1
ENDMDL
MODEL 6
REMARK VINA RESULT:      -5.3      2.467      3.343
REMARK  Name = min_compound99.pdb
REMARK  3 active torsions:
REMARK  status: ('A' for Active; 'I' for Inactive)
REMARK    1  A    between atoms: _8  and  _11
REMARK    2  A    between atoms: _9  and  _13
REMARK    3  A    between atoms: _10  and  _12
REMARK                            x       y       z     vdW  Elec       q    Type
REMARK                         _______ _______ _______ _____ _____    ______ ____
ROOT
ATOM      1  N   UNL     1     -11.524   1.671 -16.961  0.00  0.00    +0.006 NA
ATOM      2  C   UNL     1     -12.100   2.442 -17.833  0.00  0.00    +0.391 C 
ATOM      3  C   UNL     1     -12.017   3.964 -17.755  0.00  0.00    +0.137 C 
ATOM      4  C   UNL     1     -11.265   4.483 -16.611  0.00  0.00    +0.099 C 
ATOM      5  C   UNL     1     -10.668   3.531 -15.726  0.00  0.00    +0.078 C 
ATOM      6  N   UNL     1     -12.575   4.740 -18.635  0.00  0.00    -0.269 NA
ATOM      7  C   UNL     1     -13.247   4.101 -19.650  0.00  0.00    +0.172 C 
ATOM      8  C   UNL     1     -13.869   4.944 -20.712  0.00  0.00    +0.041 C 
ATOM      9  C   UNL     1     -13.347   2.605 -19.708  0.00  0.00    +0.152 C 
ATOM     10  C   UNL     1     -14.128   1.976 -20.838  0.00  0.00    +0.093 C 
ATOM     11  N   UNL     1     -12.803   1.815 -18.837  0.00  0.00    -0.042 NA
ATOM     12  C   UNL     1     -10.800   2.205 -15.926  0.00  0.00    +0.311 C 
ENDROOT
BRANCH  12  13
ATOM     13  N   UNL     1     -10.197   1.331 -15.052  0.00  0.00    -0.247 N 
ATOM     14  H   UNL     1     -10.574   1.498 -14.120  0.00  0.00    +0.288 HD
ATOM     15  H   UNL     1      -9.185   1.379 -15.070  0.00  0.00    +0.288 HD
ENDBRANCH  12  13
TORSDOF 1
ENDMDL
MODEL 7
REMARK VINA RESULT:      -5.3      1.173      5.026
REMARK  Name = min_compound99.pdb
REMARK  3 active torsions:
REMARK  status: ('A' for Active; 'I' for Inactive)
REMARK    1  A    between atoms: _8  and  _11
REMARK    2  A    between atoms: _9  and  _13
REMARK    3  A    between atoms: _10  and  _12
REMARK                            x       y       z     vdW  Elec       q    Type
REMARK                         _______ _______ _______ _____ _____    ______ ____
ROOT
ATOM      1  N   UNL     1     -13.463   3.211 -16.301  0.00  0.00    +0.006 NA
ATOM      2  C   UNL     1     -12.428   2.477 -16.575  0.00  0.00    +0.391 C 
ATOM      3  C   UNL     1     -11.161   3.057 -17.199  0.00  0.00    +0.137 C 
ATOM      4  C   UNL     1     -11.217   4.492 -17.487  0.00  0.00    +0.099 C 
ATOM      5  C   UNL     1     -12.412   5.192 -17.128  0.00  0.00    +0.078 C 
ATOM      6  N   UNL     1     -10.115   2.333 -17.459  0.00  0.00    -0.269 NA
ATOM      7  C   UNL     1     -10.218   1.001 -17.131  0.00  0.00    +0.172 C 
ATOM      8  C   UNL     1      -9.029   0.132 -17.367  0.00  0.00    +0.041 C 
ATOM      9  C   UNL     1     -11.474   0.431 -16.540  0.00  0.00    +0.152 C 
ATOM     10  C   UNL     1     -11.523  -1.047 -16.235  0.00  0.00    +0.093 C 
ATOM     11  N   UNL     1     -12.530   1.136 -16.280  0.00  0.00    -0.042 NA
ATOM     12  C   UNL     1     -13.453   4.559 -16.557  0.00  0.00    +0.311 C 
ENDROOT
BRANCH  12  13
ATOM     13  N   UNL     1     -14.575   5.279 -16.220  0.00  0.00    -0.247 N 
ATOM     14  H   UNL     1     -14.734   5.981 -16.941  0.00  0.00    +0.288 HD
ATOM     15  H   UNL     1     -14.527   5.686 -15.293  0.00  0.00    +0.288 HD
ENDBRANCH  12  13
TORSDOF 1
ENDMDL
MODEL 8
REMARK VINA RESULT:      -5.2     10.463     11.517
REMARK  Name = min_compound99.pdb
REMARK  3 active torsions:
REMARK  status: ('A' for Active; 'I' for Inactive)
REMARK    1  A    between atoms: _8  and  _11
REMARK    2  A    between atoms: _9  and  _13
REMARK    3  A    between atoms: _10  and  _12
REMARK                            x       y       z     vdW  Elec       q    Type
REMARK                         _______ _______ _______ _____ _____    ______ ____
ROOT
ATOM      1  N   UNL     1     -16.204  -0.811  -5.879  0.00  0.00    +0.006 NA
ATOM      2  C   UNL     1     -16.630   0.113  -6.686  0.00  0.00    +0.391 C 
ATOM      3  C   UNL     1     -15.680   1.077  -7.393  0.00  0.00    +0.137 C 
ATOM      4  C   UNL     1     -14.263   0.896  -7.069  0.00  0.00    +0.099 C 
ATOM      5  C   UNL     1     -13.921  -0.166  -6.173  0.00  0.00    +0.078 C 
ATOM      6  N   UNL     1     -16.097   1.991  -8.215  0.00  0.00    -0.269 NA
ATOM      7  C   UNL     1     -17.457   2.036  -8.414  0.00  0.00    +0.172 C 
ATOM      8  C   UNL     1     -17.987   3.039  -9.384  0.00  0.00    +0.041 C 
ATOM      9  C   UNL     1     -18.388   1.102  -7.698  0.00  0.00    +0.152 C 
ATOM     10  C   UNL     1     -19.873   1.232  -7.946  0.00  0.00    +0.093 C 
ATOM     11  N   UNL     1     -17.992   0.188  -6.869  0.00  0.00    -0.042 NA
ATOM     12  C   UNL     1     -14.863  -0.964  -5.635  0.00  0.00    +0.311 C 
ENDROOT
BRANCH  12  13
ATOM     13  N   UNL     1     -14.481  -1.978  -4.788  0.00  0.00    -0.247 N 
ATOM     14  H   UNL     1     -13.822  -2.577  -5.282  0.00  0.00    +0.288 HD
ATOM     15  H   UNL     1     -15.262  -2.499  -4.408  0.00  0.00    +0.288 HD
ENDBRANCH  12  13
TORSDOF 1
ENDMDL
MODEL 9
REMARK VINA RESULT:      -5.0     11.478     12.635
REMARK  Name = min_compound99.pdb
REMARK  3 active torsions:
REMARK  status: ('A' for Active; 'I' for Inactive)
REMARK    1  A    between atoms: _8  and  _11
REMARK    2  A    between atoms: _9  and  _13
REMARK    3  A    between atoms: _10  and  _12
REMARK                            x       y       z     vdW  Elec       q    Type
REMARK                         _______ _______ _______ _____ _____    ______ ____
ROOT
ATOM      1  N   UNL     1     -15.685   1.636  -7.216  0.00  0.00    +0.006 NA
ATOM      2  C   UNL     1     -15.430   0.961  -6.137  0.00  0.00    +0.391 C 
ATOM      3  C   UNL     1     -16.130  -0.358  -5.818  0.00  0.00    +0.137 C 
ATOM      4  C   UNL     1     -17.125  -0.783  -6.805  0.00  0.00    +0.099 C 
ATOM      5  C   UNL     1     -17.306   0.044  -7.958  0.00  0.00    +0.078 C 
ATOM      6  N   UNL     1     -15.867  -1.048  -4.750  0.00  0.00    -0.269 NA
ATOM      7  C   UNL     1     -14.909  -0.516  -3.919  0.00  0.00    +0.172 C 
ATOM      8  C   UNL     1     -14.536  -1.290  -2.700  0.00  0.00    +0.041 C 
ATOM      9  C   UNL     1     -14.241   0.793  -4.225  0.00  0.00    +0.152 C 
ATOM     10  C   UNL     1     -13.220   1.328  -3.249  0.00  0.00    +0.093 C 
ATOM     11  N   UNL     1     -14.495   1.499  -5.282  0.00  0.00    -0.042 NA
ATOM     12  C   UNL     1     -16.600   1.178  -8.129  0.00  0.00    +0.311 C 
ENDROOT
BRANCH  12  13
ATOM     13  N   UNL     1     -16.803   1.932  -9.261  0.00  0.00    -0.247 N 
ATOM     14  H   UNL     1     -17.801   2.123  -9.345  0.00  0.00    +0.288 HD
ATOM     15  H   UNL     1     -16.423   1.508 -10.099  0.00  0.00    +0.288 HD
ENDBRANCH  12  13
TORSDOF 1
ENDMDL
