MODEL 1
REMARK VINA RESULT:      -7.5      0.000      0.000
REMARK  Name = min_compound961.pdb
REMARK  4 active torsions:
REMARK  status: ('A' for Active; 'I' for Inactive)
REMARK    1  A    between atoms: _10  and  _12
REMARK    2  A    between atoms: _11  and  _13
REMARK    3  A    between atoms: _13  and  _16
REMARK    4  A    between atoms: _18  and  _20
REMARK                            x       y       z     vdW  Elec       q    Type
REMARK                         _______ _______ _______ _____ _____    ______ ____
ROOT
ATOM      1  C   UNL     1     -13.415  -5.820  -1.322  0.00  0.00    +0.002 A 
ATOM      2  C   UNL     1     -14.601  -6.451  -1.351  0.00  0.00    +0.001 A 
ATOM      3  C   UNL     1     -15.790  -5.690  -1.696  0.00  0.00    +0.016 A 
ATOM      4  C   UNL     1     -15.743  -4.268  -2.031  0.00  0.00    +0.030 A 
ATOM      5  S   UNL     1     -17.214  -3.475  -2.450  0.00  0.00    -0.100 S 
ATOM      6  C   UNL     1     -16.605  -1.995  -3.291  0.00  0.00    +0.167 C 
ATOM      7  C   UNL     1     -15.372  -1.497  -2.937  0.00  0.00    +0.130 C 
ATOM      8  N   UNL     1     -14.389  -2.288  -2.295  0.00  0.00    -0.334 N 
ATOM      9  H   UNL     1     -13.537  -2.178  -2.828  0.00  0.00    +0.147 HD
ATOM     10  C   UNL     1     -14.561  -3.624  -1.992  0.00  0.00    +0.041 A 
ATOM     11  C   UNL     1     -13.371  -4.399  -1.630  0.00  0.00    +0.024 A 
ENDROOT
BRANCH   7  12
ATOM     12  C   UNL     1     -14.906  -0.058  -3.168  0.00  0.00    -0.019 A 
ATOM     13  C   UNL     1     -13.556   0.330  -3.108  0.00  0.00    +0.006 A 
ATOM     14  C   UNL     1     -13.115   1.637  -3.358  0.00  0.00    +0.007 A 
ATOM     15  C   UNL     1     -14.020   2.614  -3.741  0.00  0.00    +0.084 A 
ATOM     16  C   UNL     1     -15.361   2.256  -3.876  0.00  0.00    +0.273 A 
ATOM     17  C   UNL     1     -15.799   0.948  -3.601  0.00  0.00    +0.089 A 
BRANCH  16  18
ATOM     18  N   UNL     1     -16.328   3.257  -4.338  0.00  0.00    +0.080 N 
ATOM     19  O   UNL     1     -17.230   2.898  -5.110  0.00  0.00    +0.041 OA
ATOM     20  O   UNL     1     -16.190   4.427  -3.941  0.00  0.00    -0.576 OA
ENDBRANCH  16  18
ENDBRANCH   7  12
BRANCH   6  21
ATOM     21  N   UNL     1     -17.630  -1.629  -4.118  0.00  0.00    -0.189 NA
ATOM     22  H   UNL     1     -17.231  -1.326  -5.006  0.00  0.00    +0.155 HD
BRANCH  21  23
ATOM     23  O   UNL     1     -18.552  -2.648  -4.377  0.00  0.00    -0.314 OA
ATOM     24  H   UNL     1     -19.066  -2.831  -3.575  0.00  0.00    +0.236 HD
ENDBRANCH  21  23
ENDBRANCH   6  21
TORSDOF 4
ENDMDL
MODEL 2
REMARK VINA RESULT:      -7.3      2.858      6.883
REMARK  Name = min_compound961.pdb
REMARK  4 active torsions:
REMARK  status: ('A' for Active; 'I' for Inactive)
REMARK    1  A    between atoms: _10  and  _12
REMARK    2  A    between atoms: _11  and  _13
REMARK    3  A    between atoms: _13  and  _16
REMARK    4  A    between atoms: _18  and  _20
REMARK                            x       y       z     vdW  Elec       q    Type
REMARK                         _______ _______ _______ _____ _____    ______ ____
ROOT
ATOM      1  C   UNL     1     -13.629   2.256  -3.492  0.00  0.00    +0.002 A 
ATOM      2  C   UNL     1     -14.847   2.641  -3.908  0.00  0.00    +0.001 A 
ATOM      3  C   UNL     1     -15.900   1.643  -4.006  0.00  0.00    +0.016 A 
ATOM      4  C   UNL     1     -15.688   0.241  -3.651  0.00  0.00    +0.030 A 
ATOM      5  S   UNL     1     -17.017  -0.847  -3.782  0.00  0.00    -0.100 S 
ATOM      6  C   UNL     1     -16.465  -2.226  -2.751  0.00  0.00    +0.167 C 
ATOM      7  C   UNL     1     -15.114  -2.452  -2.623  0.00  0.00    +0.130 C 
ATOM      8  N   UNL     1     -14.148  -1.448  -2.877  0.00  0.00    -0.334 N 
ATOM      9  H   UNL     1     -13.541  -1.420  -2.068  0.00  0.00    +0.147 HD
ATOM     10  C   UNL     1     -14.467  -0.156  -3.245  0.00  0.00    +0.041 A 
ATOM     11  C   UNL     1     -13.411   0.857  -3.163  0.00  0.00    +0.024 A 
ENDROOT
BRANCH   7  12
ATOM     12  C   UNL     1     -14.480  -3.782  -2.212  0.00  0.00    -0.019 A 
ATOM     13  C   UNL     1     -13.397  -3.873  -1.320  0.00  0.00    +0.006 A 
ATOM     14  C   UNL     1     -12.835  -5.089  -0.907  0.00  0.00    +0.007 A 
ATOM     15  C   UNL     1     -13.384  -6.288  -1.334  0.00  0.00    +0.084 A 
ATOM     16  C   UNL     1     -14.500  -6.244  -2.170  0.00  0.00    +0.273 A 
ATOM     17  C   UNL     1     -15.043  -5.019  -2.599  0.00  0.00    +0.089 A 
BRANCH  16  18
ATOM     18  N   UNL     1     -15.133  -7.498  -2.587  0.00  0.00    +0.080 N 
ATOM     19  O   UNL     1     -14.611  -8.150  -3.505  0.00  0.00    +0.041 OA
ATOM     20  O   UNL     1     -16.176  -7.848  -2.006  0.00  0.00    -0.576 OA
ENDBRANCH  16  18
ENDBRANCH   7  12
BRANCH   6  21
ATOM     21  N   UNL     1     -17.621  -2.832  -2.348  0.00  0.00    -0.189 NA
ATOM     22  H   UNL     1     -18.298  -2.105  -2.113  0.00  0.00    +0.155 HD
BRANCH  21  23
ATOM     23  O   UNL     1     -18.196  -3.672  -3.307  0.00  0.00    -0.314 OA
ATOM     24  H   UNL     1     -19.163  -3.634  -3.232  0.00  0.00    +0.236 HD
ENDBRANCH  21  23
ENDBRANCH   6  21
TORSDOF 4
ENDMDL
MODEL 3
REMARK VINA RESULT:      -7.2      2.874      3.709
REMARK  Name = min_compound961.pdb
REMARK  4 active torsions:
REMARK  status: ('A' for Active; 'I' for Inactive)
REMARK    1  A    between atoms: _10  and  _12
REMARK    2  A    between atoms: _11  and  _13
REMARK    3  A    between atoms: _13  and  _16
REMARK    4  A    between atoms: _18  and  _20
REMARK                            x       y       z     vdW  Elec       q    Type
REMARK                         _______ _______ _______ _____ _____    ______ ____
ROOT
ATOM      1  C   UNL     1     -18.115  -6.220  -1.717  0.00  0.00    +0.002 A 
ATOM      2  C   UNL     1     -17.260  -7.010  -1.045  0.00  0.00    +0.001 A 
ATOM      3  C   UNL     1     -15.868  -6.605  -0.940  0.00  0.00    +0.016 A 
ATOM      4  C   UNL     1     -15.366  -5.362  -1.522  0.00  0.00    +0.030 A 
ATOM      5  S   UNL     1     -13.701  -4.972  -1.313  0.00  0.00    -0.100 S 
ATOM      6  C   UNL     1     -13.692  -3.199  -1.668  0.00  0.00    +0.167 C 
ATOM      7  C   UNL     1     -14.643  -2.696  -2.526  0.00  0.00    +0.130 C 
ATOM      8  N   UNL     1     -15.858  -3.371  -2.794  0.00  0.00    -0.334 N 
ATOM      9  H   UNL     1     -16.600  -2.700  -2.647  0.00  0.00    +0.147 HD
ATOM     10  C   UNL     1     -16.213  -4.570  -2.208  0.00  0.00    +0.041 A 
ATOM     11  C   UNL     1     -17.611  -4.995  -2.317  0.00  0.00    +0.024 A 
ENDROOT
BRANCH   7  12
ATOM     12  C   UNL     1     -14.523  -1.380  -3.297  0.00  0.00    -0.019 A 
ATOM     13  C   UNL     1     -13.989  -0.207  -2.735  0.00  0.00    +0.006 A 
ATOM     14  C   UNL     1     -13.837   0.992  -3.446  0.00  0.00    +0.007 A 
ATOM     15  C   UNL     1     -14.168   1.048  -4.790  0.00  0.00    +0.084 A 
ATOM     16  C   UNL     1     -14.642  -0.112  -5.404  0.00  0.00    +0.273 A 
ATOM     17  C   UNL     1     -14.813  -1.304  -4.678  0.00  0.00    +0.089 A 
BRANCH  16  18
ATOM     18  N   UNL     1     -14.942  -0.092  -6.839  0.00  0.00    +0.080 N 
ATOM     19  O   UNL     1     -14.504   0.846  -7.523  0.00  0.00    +0.041 OA
ATOM     20  O   UNL     1     -15.634  -1.015  -7.303  0.00  0.00    -0.576 OA
ENDBRANCH  16  18
ENDBRANCH   7  12
BRANCH   6  21
ATOM     21  N   UNL     1     -12.600  -2.725  -0.998  0.00  0.00    -0.189 NA
ATOM     22  H   UNL     1     -12.908  -2.389  -0.085  0.00  0.00    +0.155 HD
BRANCH  21  23
ATOM     23  O   UNL     1     -11.591  -3.671  -0.798  0.00  0.00    -0.314 OA
ATOM     24  H   UNL     1     -10.802  -3.414  -1.302  0.00  0.00    +0.236 HD
ENDBRANCH  21  23
ENDBRANCH   6  21
TORSDOF 4
ENDMDL
MODEL 4
REMARK VINA RESULT:      -7.1     12.658     14.689
REMARK  Name = min_compound961.pdb
REMARK  4 active torsions:
REMARK  status: ('A' for Active; 'I' for Inactive)
REMARK    1  A    between atoms: _10  and  _12
REMARK    2  A    between atoms: _11  and  _13
REMARK    3  A    between atoms: _13  and  _16
REMARK    4  A    between atoms: _18  and  _20
REMARK                            x       y       z     vdW  Elec       q    Type
REMARK                         _______ _______ _______ _____ _____    ______ ____
ROOT
ATOM      1  C   UNL     1     -18.013   3.274 -12.783  0.00  0.00    +0.002 A 
ATOM      2  C   UNL     1     -18.520   4.500 -12.996  0.00  0.00    +0.001 A 
ATOM      3  C   UNL     1     -17.765   5.436 -13.812  0.00  0.00    +0.016 A 
ATOM      4  C   UNL     1     -16.484   5.089 -14.424  0.00  0.00    +0.030 A 
ATOM      5  S   UNL     1     -15.691   6.272 -15.393  0.00  0.00    -0.100 S 
ATOM      6  C   UNL     1     -14.533   5.255 -16.339  0.00  0.00    +0.167 C 
ATOM      7  C   UNL     1     -14.077   4.083 -15.779  0.00  0.00    +0.130 C 
ATOM      8  N   UNL     1     -14.768   3.421 -14.735  0.00  0.00    -0.334 N 
ATOM      9  H   UNL     1     -14.874   2.458 -15.025  0.00  0.00    +0.147 HD
ATOM     10  C   UNL     1     -15.962   3.866 -14.206  0.00  0.00    +0.041 A 
ATOM     11  C   UNL     1     -16.727   2.935 -13.371  0.00  0.00    +0.024 A 
ENDROOT
BRANCH   7  12
ATOM     12  C   UNL     1     -12.793   3.357 -16.183  0.00  0.00    -0.019 A 
ATOM     13  C   UNL     1     -11.551   4.005 -16.307  0.00  0.00    +0.006 A 
ATOM     14  C   UNL     1     -10.362   3.341 -16.638  0.00  0.00    +0.007 A 
ATOM     15  C   UNL     1     -10.358   1.965 -16.806  0.00  0.00    +0.084 A 
ATOM     16  C   UNL     1     -11.557   1.275 -16.629  0.00  0.00    +0.273 A 
ATOM     17  C   UNL     1     -12.751   1.951 -16.320  0.00  0.00    +0.089 A 
BRANCH  16  18
ATOM     18  N   UNL     1     -11.566  -0.187 -16.742  0.00  0.00    +0.080 N 
ATOM     19  O   UNL     1     -10.530  -0.759 -17.117  0.00  0.00    +0.041 OA
ATOM     20  O   UNL     1     -12.619  -0.788 -16.467  0.00  0.00    -0.576 OA
ENDBRANCH  16  18
ENDBRANCH   7  12
BRANCH   6  21
ATOM     21  N   UNL     1     -14.296   5.978 -17.474  0.00  0.00    -0.189 NA
ATOM     22  H   UNL     1     -15.132   6.522 -17.687  0.00  0.00    +0.155 HD
BRANCH  21  23
ATOM     23  O   UNL     1     -13.213   6.858 -17.380  0.00  0.00    -0.314 OA
ATOM     24  H   UNL     1     -13.208   7.446 -18.151  0.00  0.00    +0.236 HD
ENDBRANCH  21  23
ENDBRANCH   6  21
TORSDOF 4
ENDMDL
MODEL 5
REMARK VINA RESULT:      -7.1      2.659      3.428
REMARK  Name = min_compound961.pdb
REMARK  4 active torsions:
REMARK  status: ('A' for Active; 'I' for Inactive)
REMARK    1  A    between atoms: _10  and  _12
REMARK    2  A    between atoms: _11  and  _13
REMARK    3  A    between atoms: _13  and  _16
REMARK    4  A    between atoms: _18  and  _20
REMARK                            x       y       z     vdW  Elec       q    Type
REMARK                         _______ _______ _______ _____ _____    ______ ____
ROOT
ATOM      1  C   UNL     1     -19.049  -4.948  -1.579  0.00  0.00    +0.002 A 
ATOM      2  C   UNL     1     -18.360  -5.753  -0.752  0.00  0.00    +0.001 A 
ATOM      3  C   UNL     1     -16.917  -5.599  -0.667  0.00  0.00    +0.016 A 
ATOM      4  C   UNL     1     -16.188  -4.589  -1.432  0.00  0.00    +0.030 A 
ATOM      5  S   UNL     1     -14.481  -4.481  -1.231  0.00  0.00    -0.100 S 
ATOM      6  C   UNL     1     -14.139  -2.829  -1.880  0.00  0.00    +0.167 C 
ATOM      7  C   UNL     1     -14.975  -2.315  -2.845  0.00  0.00    +0.130 C 
ATOM      8  N   UNL     1     -16.294  -2.792  -3.039  0.00  0.00    -0.334 N 
ATOM      9  H   UNL     1     -16.898  -1.981  -3.035  0.00  0.00    +0.147 HD
ATOM     10  C   UNL     1     -16.869  -3.785  -2.273  0.00  0.00    +0.041 A 
ATOM     11  C   UNL     1     -18.322  -3.959  -2.359  0.00  0.00    +0.024 A 
ENDROOT
BRANCH   7  12
ATOM     12  C   UNL     1     -14.607  -1.197  -3.823  0.00  0.00    -0.019 A 
ATOM     13  C   UNL     1     -14.470  -1.402  -5.207  0.00  0.00    +0.006 A 
ATOM     14  C   UNL     1     -14.173  -0.377  -6.115  0.00  0.00    +0.007 A 
ATOM     15  C   UNL     1     -14.055   0.930  -5.672  0.00  0.00    +0.084 A 
ATOM     16  C   UNL     1     -14.248   1.188  -4.314  0.00  0.00    +0.273 A 
ATOM     17  C   UNL     1     -14.523   0.150  -3.406  0.00  0.00    +0.089 A 
BRANCH  16  18
ATOM     18  N   UNL     1     -14.187   2.571  -3.832  0.00  0.00    +0.080 N 
ATOM     19  O   UNL     1     -15.229   3.244  -3.829  0.00  0.00    +0.041 OA
ATOM     20  O   UNL     1     -13.086   3.010  -3.456  0.00  0.00    -0.576 OA
ENDBRANCH  16  18
ENDBRANCH   7  12
BRANCH   6  21
ATOM     21  N   UNL     1     -12.981  -2.454  -1.261  0.00  0.00    -0.189 NA
ATOM     22  H   UNL     1     -13.223  -1.924  -0.424  0.00  0.00    +0.155 HD
BRANCH  21  23
ATOM     23  O   UNL     1     -12.160  -3.521  -0.880  0.00  0.00    -0.314 OA
ATOM     24  H   UNL     1     -11.326  -3.176  -0.525  0.00  0.00    +0.236 HD
ENDBRANCH  21  23
ENDBRANCH   6  21
TORSDOF 4
ENDMDL
MODEL 6
REMARK VINA RESULT:      -7.1     11.953     14.141
REMARK  Name = min_compound961.pdb
REMARK  4 active torsions:
REMARK  status: ('A' for Active; 'I' for Inactive)
REMARK    1  A    between atoms: _10  and  _12
REMARK    2  A    between atoms: _11  and  _13
REMARK    3  A    between atoms: _13  and  _16
REMARK    4  A    between atoms: _18  and  _20
REMARK                            x       y       z     vdW  Elec       q    Type
REMARK                         _______ _______ _______ _____ _____    ______ ____
ROOT
ATOM      1  C   UNL     1     -15.888   5.223 -10.805  0.00  0.00    +0.002 A 
ATOM      2  C   UNL     1     -17.104   5.569 -11.263  0.00  0.00    +0.001 A 
ATOM      3  C   UNL     1     -17.375   5.452 -12.685  0.00  0.00    +0.016 A 
ATOM      4  C   UNL     1     -16.383   4.954 -13.636  0.00  0.00    +0.030 A 
ATOM      5  S   UNL     1     -16.826   4.834 -15.296  0.00  0.00    -0.100 S 
ATOM      6  C   UNL     1     -15.568   3.701 -15.930  0.00  0.00    +0.167 C 
ATOM      7  C   UNL     1     -14.338   3.671 -15.312  0.00  0.00    +0.130 C 
ATOM      8  N   UNL     1     -14.143   4.129 -13.987  0.00  0.00    -0.334 N 
ATOM      9  H   UNL     1     -13.663   3.388 -13.493  0.00  0.00    +0.147 HD
ATOM     10  C   UNL     1     -15.158   4.617 -13.189  0.00  0.00    +0.041 A 
ATOM     11  C   UNL     1     -14.892   4.752 -11.754  0.00  0.00    +0.024 A 
ENDROOT
BRANCH   7  12
ATOM     12  C   UNL     1     -13.044   3.164 -15.953  0.00  0.00    -0.019 A 
ATOM     13  C   UNL     1     -11.921   3.982 -16.164  0.00  0.00    +0.006 A 
ATOM     14  C   UNL     1     -10.718   3.518 -16.713  0.00  0.00    +0.007 A 
ATOM     15  C   UNL     1     -10.570   2.176 -17.027  0.00  0.00    +0.084 A 
ATOM     16  C   UNL     1     -11.639   1.317 -16.774  0.00  0.00    +0.273 A 
ATOM     17  C   UNL     1     -12.852   1.795 -16.244  0.00  0.00    +0.089 A 
BRANCH  16  18
ATOM     18  N   UNL     1     -11.486  -0.116 -17.042  0.00  0.00    +0.080 N 
ATOM     19  O   UNL     1     -12.307  -0.904 -16.546  0.00  0.00    +0.041 OA
ATOM     20  O   UNL     1     -10.529  -0.479 -17.748  0.00  0.00    -0.576 OA
ENDBRANCH  16  18
ENDBRANCH   7  12
BRANCH   6  21
ATOM     21  N   UNL     1     -16.150   3.125 -17.024  0.00  0.00    -0.189 NA
ATOM     22  H   UNL     1     -16.063   2.112 -16.936  0.00  0.00    +0.155 HD
BRANCH  21  23
ATOM     23  O   UNL     1     -17.503   3.436 -17.186  0.00  0.00    -0.314 OA
ATOM     24  H   UNL     1     -18.000   2.626 -17.379  0.00  0.00    +0.236 HD
ENDBRANCH  21  23
ENDBRANCH   6  21
TORSDOF 4
ENDMDL
MODEL 7
REMARK VINA RESULT:      -6.9     11.588     14.562
REMARK  Name = min_compound961.pdb
REMARK  4 active torsions:
REMARK  status: ('A' for Active; 'I' for Inactive)
REMARK    1  A    between atoms: _10  and  _12
REMARK    2  A    between atoms: _11  and  _13
REMARK    3  A    between atoms: _13  and  _16
REMARK    4  A    between atoms: _18  and  _20
REMARK                            x       y       z     vdW  Elec       q    Type
REMARK                         _______ _______ _______ _____ _____    ______ ____
ROOT
ATOM      1  C   UNL     1     -12.077   5.488 -18.359  0.00  0.00    +0.002 A 
ATOM      2  C   UNL     1     -12.275   6.759 -18.749  0.00  0.00    +0.001 A 
ATOM      3  C   UNL     1     -13.310   7.539 -18.093  0.00  0.00    +0.016 A 
ATOM      4  C   UNL     1     -14.134   7.000 -17.012  0.00  0.00    +0.030 A 
ATOM      5  S   UNL     1     -15.314   8.027 -16.291  0.00  0.00    -0.100 S 
ATOM      6  C   UNL     1     -15.641   7.171 -14.732  0.00  0.00    +0.167 C 
ATOM      7  C   UNL     1     -15.469   5.806 -14.682  0.00  0.00    +0.130 C 
ATOM      8  N   UNL     1     -14.659   5.108 -15.610  0.00  0.00    -0.334 N 
ATOM      9  H   UNL     1     -14.027   4.535 -15.067  0.00  0.00    +0.147 HD
ATOM     10  C   UNL     1     -13.951   5.724 -16.622  0.00  0.00    +0.041 A 
ATOM     11  C   UNL     1     -12.911   4.944 -17.300  0.00  0.00    +0.024 A 
ENDROOT
BRANCH   7  12
ATOM     12  C   UNL     1     -16.119   4.875 -13.656  0.00  0.00    -0.019 A 
ATOM     13  C   UNL     1     -16.903   3.765 -14.015  0.00  0.00    +0.006 A 
ATOM     14  C   UNL     1     -17.468   2.883 -13.084  0.00  0.00    +0.007 A 
ATOM     15  C   UNL     1     -17.220   3.050 -11.731  0.00  0.00    +0.084 A 
ATOM     16  C   UNL     1     -16.394   4.102 -11.335  0.00  0.00    +0.273 A 
ATOM     17  C   UNL     1     -15.849   4.996 -12.274  0.00  0.00    +0.089 A 
BRANCH  16  18
ATOM     18  N   UNL     1     -16.068   4.263  -9.915  0.00  0.00    +0.080 N 
ATOM     19  O   UNL     1     -15.861   3.245  -9.235  0.00  0.00    +0.041 OA
ATOM     20  O   UNL     1     -16.025   5.416  -9.452  0.00  0.00    -0.576 OA
ENDBRANCH  16  18
ENDBRANCH   7  12
BRANCH   6  21
ATOM     21  N   UNL     1     -16.092   8.152 -13.895  0.00  0.00    -0.189 NA
ATOM     22  H   UNL     1     -15.861   7.885 -12.937  0.00  0.00    +0.155 HD
BRANCH  21  23
ATOM     23  O   UNL     1     -15.546   9.415 -14.141  0.00  0.00    -0.314 OA
ATOM     24  H   UNL     1     -15.602   9.612 -15.089  0.00  0.00    +0.236 HD
ENDBRANCH  21  23
ENDBRANCH   6  21
TORSDOF 4
ENDMDL
MODEL 8
REMARK VINA RESULT:      -6.8     13.846     15.829
REMARK  Name = min_compound961.pdb
REMARK  4 active torsions:
REMARK  status: ('A' for Active; 'I' for Inactive)
REMARK    1  A    between atoms: _10  and  _12
REMARK    2  A    between atoms: _11  and  _13
REMARK    3  A    between atoms: _13  and  _16
REMARK    4  A    between atoms: _18  and  _20
REMARK                            x       y       z     vdW  Elec       q    Type
REMARK                         _______ _______ _______ _____ _____    ______ ____
ROOT
ATOM      1  C   UNL     1     -15.560   8.954 -17.432  0.00  0.00    +0.002 A 
ATOM      2  C   UNL     1     -16.860   8.699 -17.208  0.00  0.00    +0.001 A 
ATOM      3  C   UNL     1     -17.256   7.348 -16.847  0.00  0.00    +0.016 A 
ATOM      4  C   UNL     1     -16.291   6.259 -16.701  0.00  0.00    +0.030 A 
ATOM      5  S   UNL     1     -16.873   4.704 -16.243  0.00  0.00    -0.100 S 
ATOM      6  C   UNL     1     -15.361   3.904 -15.659  0.00  0.00    +0.167 C 
ATOM      7  C   UNL     1     -14.157   4.304 -16.193  0.00  0.00    +0.130 C 
ATOM      8  N   UNL     1     -13.985   5.561 -16.822  0.00  0.00    -0.334 N 
ATOM      9  H   UNL     1     -13.176   5.990 -16.393  0.00  0.00    +0.147 HD
ATOM     10  C   UNL     1     -14.987   6.503 -16.936  0.00  0.00    +0.041 A 
ATOM     11  C   UNL     1     -14.602   7.866 -17.311  0.00  0.00    +0.024 A 
ENDROOT
BRANCH   7  12
ATOM     12  C   UNL     1     -12.874   3.470 -16.191  0.00  0.00    -0.019 A 
ATOM     13  C   UNL     1     -11.642   3.957 -15.720  0.00  0.00    +0.006 A 
ATOM     14  C   UNL     1     -10.471   3.187 -15.678  0.00  0.00    +0.007 A 
ATOM     15  C   UNL     1     -10.502   1.856 -16.060  0.00  0.00    +0.084 A 
ATOM     16  C   UNL     1     -11.719   1.314 -16.474  0.00  0.00    +0.273 A 
ATOM     17  C   UNL     1     -12.884   2.099 -16.536  0.00  0.00    +0.089 A 
BRANCH  16  18
ATOM     18  N   UNL     1     -11.788  -0.107 -16.826  0.00  0.00    +0.080 N 
ATOM     19  O   UNL     1     -10.876  -0.593 -17.513  0.00  0.00    +0.041 OA
ATOM     20  O   UNL     1     -12.769  -0.760 -16.427  0.00  0.00    -0.576 OA
ENDBRANCH  16  18
ENDBRANCH   7  12
BRANCH   6  21
ATOM     21  N   UNL     1     -15.798   2.946 -14.789  0.00  0.00    -0.189 NA
ATOM     22  H   UNL     1     -16.509   3.362 -14.187  0.00  0.00    +0.155 HD
BRANCH  21  23
ATOM     23  O   UNL     1     -16.353   1.819 -15.405  0.00  0.00    -0.314 OA
ATOM     24  H   UNL     1     -15.815   1.574 -16.174  0.00  0.00    +0.236 HD
ENDBRANCH  21  23
ENDBRANCH   6  21
TORSDOF 4
ENDMDL
MODEL 9
REMARK VINA RESULT:      -6.8     15.362     16.721
REMARK  Name = min_compound961.pdb
REMARK  4 active torsions:
REMARK  status: ('A' for Active; 'I' for Inactive)
REMARK    1  A    between atoms: _10  and  _12
REMARK    2  A    between atoms: _11  and  _13
REMARK    3  A    between atoms: _13  and  _16
REMARK    4  A    between atoms: _18  and  _20
REMARK                            x       y       z     vdW  Elec       q    Type
REMARK                         _______ _______ _______ _____ _____    ______ ____
ROOT
ATOM      1  C   UNL     1      -9.804  -1.063 -16.880  0.00  0.00    +0.002 A 
ATOM      2  C   UNL     1      -9.585  -0.510 -15.674  0.00  0.00    +0.001 A 
ATOM      3  C   UNL     1     -10.271   0.726 -15.337  0.00  0.00    +0.016 A 
ATOM      4  C   UNL     1     -11.204   1.382 -16.252  0.00  0.00    +0.030 A 
ATOM      5  S   UNL     1     -11.978   2.831 -15.734  0.00  0.00    -0.100 S 
ATOM      6  C   UNL     1     -13.372   2.931 -16.880  0.00  0.00    +0.167 C 
ATOM      7  C   UNL     1     -13.239   2.367 -18.128  0.00  0.00    +0.130 C 
ATOM      8  N   UNL     1     -12.282   1.363 -18.410  0.00  0.00    -0.334 N 
ATOM      9  H   UNL     1     -12.781   0.605 -18.856  0.00  0.00    +0.147 HD
ATOM     10  C   UNL     1     -11.420   0.842 -17.467  0.00  0.00    +0.041 A 
ATOM     11  C   UNL     1     -10.713  -0.398 -17.800  0.00  0.00    +0.024 A 
ENDROOT
BRANCH   7  12
ATOM     12  C   UNL     1     -14.074   2.741 -19.355  0.00  0.00    -0.019 A 
ATOM     13  C   UNL     1     -15.167   3.623 -19.300  0.00  0.00    +0.006 A 
ATOM     14  C   UNL     1     -15.913   4.002 -20.425  0.00  0.00    +0.007 A 
ATOM     15  C   UNL     1     -15.550   3.548 -21.683  0.00  0.00    +0.084 A 
ATOM     16  C   UNL     1     -14.432   2.721 -21.791  0.00  0.00    +0.273 A 
ATOM     17  C   UNL     1     -13.703   2.327 -20.655  0.00  0.00    +0.089 A 
BRANCH  16  18
ATOM     18  N   UNL     1     -13.994   2.277 -23.117  0.00  0.00    +0.080 N 
ATOM     19  O   UNL     1     -14.670   2.605 -24.106  0.00  0.00    +0.041 OA
ATOM     20  O   UNL     1     -12.967   1.580 -23.190  0.00  0.00    -0.576 OA
ENDBRANCH  16  18
ENDBRANCH   7  12
BRANCH   6  21
ATOM     21  N   UNL     1     -14.306   3.673 -16.214  0.00  0.00    -0.189 NA
ATOM     22  H   UNL     1     -15.190   3.163 -16.230  0.00  0.00    +0.155 HD
BRANCH  21  23
ATOM     23  O   UNL     1     -13.982   3.945 -14.881  0.00  0.00    -0.314 OA
ATOM     24  H   UNL     1     -14.572   4.634 -14.539  0.00  0.00    +0.236 HD
ENDBRANCH  21  23
ENDBRANCH   6  21
TORSDOF 4
ENDMDL
