MODEL 1
REMARK VINA RESULT:      -7.4      0.000      0.000
REMARK  Name = min_compound943.pdb
REMARK  2 active torsions:
REMARK  status: ('A' for Active; 'I' for Inactive)
REMARK    1  A    between atoms: _1  and  _3
REMARK    2  A    between atoms: _1  and  _21
REMARK                            x       y       z     vdW  Elec       q    Type
REMARK                         _______ _______ _______ _____ _____    ______ ____
ROOT
ATOM      1  C   UNL     1     -15.414   7.408 -16.919  0.00  0.00    +0.216 A 
ATOM      2  N   UNL     1     -15.546   6.107 -16.600  0.00  0.00    -0.204 NA
ATOM      3  C   UNL     1     -14.488   5.290 -16.830  0.00  0.00    +0.128 A 
ATOM      4  S   UNL     1     -14.754   3.582 -16.384  0.00  0.00    -0.045 S 
ATOM      5  C   UNL     1     -13.176   2.833 -16.726  0.00  0.00    +0.144 A 
ATOM      6  N   UNL     1     -13.073   1.516 -16.411  0.00  0.00    -0.235 NA
ATOM      7  C   UNL     1     -11.892   0.922 -16.654  0.00  0.00    +0.091 A 
ATOM      8  C   UNL     1     -11.725  -0.422 -16.345  0.00  0.00    +0.030 A 
ATOM      9  C   UNL     1     -10.514  -1.077 -16.578  0.00  0.00    +0.002 A 
ATOM     10  C   UNL     1      -9.451  -0.375 -17.130  0.00  0.00    +0.002 A 
ATOM     11  C   UNL     1      -9.608   0.976 -17.444  0.00  0.00    +0.030 A 
ATOM     12  C   UNL     1     -10.807   1.639 -17.216  0.00  0.00    +0.091 A 
ATOM     13  N   UNL     1     -10.916   2.944 -17.531  0.00  0.00    -0.228 NA
ATOM     14  C   UNL     1     -12.103   3.541 -17.281  0.00  0.00    +0.156 A 
ATOM     15  N   UNL     1     -12.187   4.894 -17.601  0.00  0.00    -0.295 N 
ATOM     16  H   UNL     1     -11.325   5.264 -17.973  0.00  0.00    +0.154 HD
ATOM     17  C   UNL     1     -13.274   5.738 -17.374  0.00  0.00    +0.065 A 
ATOM     18  C   UNL     1     -13.176   7.095 -17.687  0.00  0.00    +0.031 A 
ATOM     19  C   UNL     1     -14.253   7.946 -17.449  0.00  0.00    +0.069 A 
ENDROOT
BRANCH   1  20
ATOM     20  O   UNL     1     -16.500   8.178 -16.605  0.00  0.00    -0.480 OA
ATOM     21  C   UNL     1     -16.179   9.263 -15.742  0.00  0.00    +0.279 C 
ENDBRANCH   1  20
TORSDOF 1
ENDMDL
MODEL 2
REMARK VINA RESULT:      -7.1      1.875      1.983
REMARK  Name = min_compound943.pdb
REMARK  2 active torsions:
REMARK  status: ('A' for Active; 'I' for Inactive)
REMARK    1  A    between atoms: _1  and  _3
REMARK    2  A    between atoms: _1  and  _21
REMARK                            x       y       z     vdW  Elec       q    Type
REMARK                         _______ _______ _______ _____ _____    ______ ____
ROOT
ATOM      1  C   UNL     1     -15.193   7.209 -19.246  0.00  0.00    +0.216 A 
ATOM      2  N   UNL     1     -14.898   5.963 -19.661  0.00  0.00    -0.204 NA
ATOM      3  C   UNL     1     -14.046   5.229 -18.903  0.00  0.00    +0.128 A 
ATOM      4  S   UNL     1     -13.706   3.594 -19.532  0.00  0.00    -0.045 S 
ATOM      5  C   UNL     1     -12.654   2.897 -18.278  0.00  0.00    +0.144 A 
ATOM      6  N   UNL     1     -12.286   1.605 -18.474  0.00  0.00    -0.235 NA
ATOM      7  C   UNL     1     -11.493   1.049 -17.542  0.00  0.00    +0.091 A 
ATOM      8  C   UNL     1     -11.091  -0.273 -17.685  0.00  0.00    +0.030 A 
ATOM      9  C   UNL     1     -10.271  -0.890 -16.739  0.00  0.00    +0.002 A 
ATOM     10  C   UNL     1      -9.845  -0.172 -15.629  0.00  0.00    +0.002 A 
ATOM     11  C   UNL     1     -10.243   1.157 -15.475  0.00  0.00    +0.030 A 
ATOM     12  C   UNL     1     -11.060   1.781 -16.409  0.00  0.00    +0.091 A 
ATOM     13  N   UNL     1     -11.425   3.064 -16.221  0.00  0.00    -0.228 NA
ATOM     14  C   UNL     1     -12.226   3.620 -17.157  0.00  0.00    +0.156 A 
ATOM     15  N   UNL     1     -12.601   4.943 -16.934  0.00  0.00    -0.295 N 
ATOM     16  H   UNL     1     -12.228   5.318 -16.074  0.00  0.00    +0.154 HD
ATOM     17  C   UNL     1     -13.471   5.705 -17.714  0.00  0.00    +0.065 A 
ATOM     18  C   UNL     1     -13.805   7.001 -17.316  0.00  0.00    +0.031 A 
ATOM     19  C   UNL     1     -14.685   7.762 -18.082  0.00  0.00    +0.069 A 
ENDROOT
BRANCH   1  20
ATOM     20  O   UNL     1     -16.103   7.864 -20.031  0.00  0.00    -0.480 OA
ATOM     21  C   UNL     1     -16.984   8.694 -19.283  0.00  0.00    +0.279 C 
ENDBRANCH   1  20
TORSDOF 1
ENDMDL
MODEL 3
REMARK VINA RESULT:      -7.0      1.235      2.160
REMARK  Name = min_compound943.pdb
REMARK  2 active torsions:
REMARK  status: ('A' for Active; 'I' for Inactive)
REMARK    1  A    between atoms: _1  and  _3
REMARK    2  A    between atoms: _1  and  _21
REMARK                            x       y       z     vdW  Elec       q    Type
REMARK                         _______ _______ _______ _____ _____    ______ ____
ROOT
ATOM      1  C   UNL     1     -15.370   7.720 -16.947  0.00  0.00    +0.216 A 
ATOM      2  N   UNL     1     -14.113   7.307 -17.196  0.00  0.00    -0.204 NA
ATOM      3  C   UNL     1     -13.831   5.994 -17.011  0.00  0.00    +0.128 A 
ATOM      4  S   UNL     1     -12.141   5.537 -17.357  0.00  0.00    -0.045 S 
ATOM      5  C   UNL     1     -12.146   3.776 -17.104  0.00  0.00    +0.144 A 
ATOM      6  N   UNL     1     -10.973   3.144 -17.365  0.00  0.00    -0.235 NA
ATOM      7  C   UNL     1     -10.946   1.812 -17.187  0.00  0.00    +0.091 A 
ATOM      8  C   UNL     1      -9.776   1.110 -17.447  0.00  0.00    +0.030 A 
ATOM      9  C   UNL     1      -9.705  -0.274 -17.278  0.00  0.00    +0.002 A 
ATOM     10  C   UNL     1     -10.825  -0.969 -16.840  0.00  0.00    +0.002 A 
ATOM     11  C   UNL     1     -12.006  -0.274 -16.577  0.00  0.00    +0.030 A 
ATOM     12  C   UNL     1     -12.089   1.103 -16.743  0.00  0.00    +0.091 A 
ATOM     13  N   UNL     1     -13.249   1.736 -16.480  0.00  0.00    -0.228 NA
ATOM     14  C   UNL     1     -13.276   3.075 -16.665  0.00  0.00    +0.156 A 
ATOM     15  N   UNL     1     -14.490   3.705 -16.401  0.00  0.00    -0.295 N 
ATOM     16  H   UNL     1     -15.212   3.061 -16.112  0.00  0.00    +0.154 HD
ATOM     17  C   UNL     1     -14.784   5.056 -16.582  0.00  0.00    +0.065 A 
ATOM     18  C   UNL     1     -16.077   5.523 -16.339  0.00  0.00    +0.031 A 
ATOM     19  C   UNL     1     -16.381   6.869 -16.533  0.00  0.00    +0.069 A 
ENDROOT
BRANCH   1  20
ATOM     20  O   UNL     1     -15.592   9.044 -17.212  0.00  0.00    -0.480 OA
ATOM     21  C   UNL     1     -16.122   9.752 -16.098  0.00  0.00    +0.279 C 
ENDBRANCH   1  20
TORSDOF 1
ENDMDL
MODEL 4
REMARK VINA RESULT:      -6.6      2.122      2.233
REMARK  Name = min_compound943.pdb
REMARK  2 active torsions:
REMARK  status: ('A' for Active; 'I' for Inactive)
REMARK    1  A    between atoms: _1  and  _3
REMARK    2  A    between atoms: _1  and  _21
REMARK                            x       y       z     vdW  Elec       q    Type
REMARK                         _______ _______ _______ _____ _____    ______ ____
ROOT
ATOM      1  C   UNL     1     -15.827   6.876 -19.295  0.00  0.00    +0.216 A 
ATOM      2  N   UNL     1     -15.108   6.545 -18.206  0.00  0.00    -0.204 NA
ATOM      3  C   UNL     1     -14.473   5.346 -18.209  0.00  0.00    +0.128 A 
ATOM      4  S   UNL     1     -13.551   4.987 -16.723  0.00  0.00    -0.045 S 
ATOM      5  C   UNL     1     -12.793   3.421 -17.096  0.00  0.00    +0.144 A 
ATOM      6  N   UNL     1     -11.964   2.929 -16.140  0.00  0.00    -0.235 NA
ATOM      7  C   UNL     1     -11.374   1.748 -16.393  0.00  0.00    +0.091 A 
ATOM      8  C   UNL     1     -10.509   1.200 -15.455  0.00  0.00    +0.030 A 
ATOM      9  C   UNL     1      -9.872  -0.021 -15.679  0.00  0.00    +0.002 A 
ATOM     10  C   UNL     1     -10.105  -0.708 -16.863  0.00  0.00    +0.002 A 
ATOM     11  C   UNL     1     -10.973  -0.167 -17.813  0.00  0.00    +0.030 A 
ATOM     12  C   UNL     1     -11.611   1.050 -17.602  0.00  0.00    +0.091 A 
ATOM     13  N   UNL     1     -12.438   1.539 -18.546  0.00  0.00    -0.228 NA
ATOM     14  C   UNL     1     -13.027   2.728 -18.291  0.00  0.00    +0.156 A 
ATOM     15  N   UNL     1     -13.867   3.222 -19.287  0.00  0.00    -0.295 N 
ATOM     16  H   UNL     1     -13.916   2.617 -20.094  0.00  0.00    +0.154 HD
ATOM     17  C   UNL     1     -14.528   4.450 -19.287  0.00  0.00    +0.065 A 
ATOM     18  C   UNL     1     -15.281   4.832 -20.399  0.00  0.00    +0.031 A 
ATOM     19  C   UNL     1     -15.931   6.064 -20.412  0.00  0.00    +0.069 A 
ENDROOT
BRANCH   1  20
ATOM     20  O   UNL     1     -16.388   8.123 -19.242  0.00  0.00    -0.480 OA
ATOM     21  C   UNL     1     -15.981   8.866 -18.099  0.00  0.00    +0.279 C 
ENDBRANCH   1  20
TORSDOF 1
ENDMDL
MODEL 5
REMARK VINA RESULT:      -6.5      9.575     10.276
REMARK  Name = min_compound943.pdb
REMARK  2 active torsions:
REMARK  status: ('A' for Active; 'I' for Inactive)
REMARK    1  A    between atoms: _1  and  _3
REMARK    2  A    between atoms: _1  and  _21
REMARK                            x       y       z     vdW  Elec       q    Type
REMARK                         _______ _______ _______ _____ _____    ______ ____
ROOT
ATOM      1  C   UNL     1     -17.394   6.310 -10.251  0.00  0.00    +0.216 A 
ATOM      2  N   UNL     1     -17.722   5.858  -9.027  0.00  0.00    -0.204 NA
ATOM      3  C   UNL     1     -17.168   4.690  -8.615  0.00  0.00    +0.128 A 
ATOM      4  S   UNL     1     -17.664   4.164  -6.983  0.00  0.00    -0.045 S 
ATOM      5  C   UNL     1     -16.706   2.685  -6.735  0.00  0.00    +0.144 A 
ATOM      6  N   UNL     1     -16.843   2.096  -5.519  0.00  0.00    -0.235 NA
ATOM      7  C   UNL     1     -16.129   0.978  -5.300  0.00  0.00    +0.091 A 
ATOM      8  C   UNL     1     -16.222   0.336  -4.072  0.00  0.00    +0.030 A 
ATOM      9  C   UNL     1     -15.496  -0.825  -3.801  0.00  0.00    +0.002 A 
ATOM     10  C   UNL     1     -14.661  -1.354  -4.777  0.00  0.00    +0.002 A 
ATOM     11  C   UNL     1     -14.560  -0.717  -6.014  0.00  0.00    +0.030 A 
ATOM     12  C   UNL     1     -15.276   0.440  -6.295  0.00  0.00    +0.091 A 
ATOM     13  N   UNL     1     -15.147   1.026  -7.501  0.00  0.00    -0.228 NA
ATOM     14  C   UNL     1     -15.862   2.152  -7.718  0.00  0.00    +0.156 A 
ATOM     15  N   UNL     1     -15.701   2.748  -8.967  0.00  0.00    -0.295 N 
ATOM     16  H   UNL     1     -15.045   2.256  -9.556  0.00  0.00    +0.154 HD
ATOM     17  C   UNL     1     -16.274   3.945  -9.399  0.00  0.00    +0.065 A 
ATOM     18  C   UNL     1     -15.956   4.449 -10.661  0.00  0.00    +0.031 A 
ATOM     19  C   UNL     1     -16.512   5.652 -11.093  0.00  0.00    +0.069 A 
ENDROOT
BRANCH   1  20
ATOM     20  O   UNL     1     -17.945   7.520 -10.572  0.00  0.00    -0.480 OA
ATOM     21  C   UNL     1     -19.099   7.826  -9.798  0.00  0.00    +0.279 C 
ENDBRANCH   1  20
TORSDOF 1
ENDMDL
MODEL 6
REMARK VINA RESULT:      -6.4     14.372     15.399
REMARK  Name = min_compound943.pdb
REMARK  2 active torsions:
REMARK  status: ('A' for Active; 'I' for Inactive)
REMARK    1  A    between atoms: _1  and  _3
REMARK    2  A    between atoms: _1  and  _21
REMARK                            x       y       z     vdW  Elec       q    Type
REMARK                         _______ _______ _______ _____ _____    ______ ____
ROOT
ATOM      1  C   UNL     1     -15.528   2.802  -3.797  0.00  0.00    +0.216 A 
ATOM      2  N   UNL     1     -16.491   1.880  -3.615  0.00  0.00    -0.204 NA
ATOM      3  C   UNL     1     -16.105   0.596  -3.405  0.00  0.00    +0.128 A 
ATOM      4  S   UNL     1     -17.448  -0.559  -3.181  0.00  0.00    -0.045 S 
ATOM      5  C   UNL     1     -16.603  -2.089  -2.847  0.00  0.00    +0.144 A 
ATOM      6  N   UNL     1     -17.402  -3.151  -2.570  0.00  0.00    -0.235 NA
ATOM      7  C   UNL     1     -16.793  -4.320  -2.309  0.00  0.00    +0.091 A 
ATOM      8  C   UNL     1     -17.559  -5.440  -2.012  0.00  0.00    +0.030 A 
ATOM      9  C   UNL     1     -16.968  -6.673  -1.731  0.00  0.00    +0.002 A 
ATOM     10  C   UNL     1     -15.584  -6.789  -1.750  0.00  0.00    +0.002 A 
ATOM     11  C   UNL     1     -14.804  -5.670  -2.049  0.00  0.00    +0.030 A 
ATOM     12  C   UNL     1     -15.382  -4.437  -2.327  0.00  0.00    +0.091 A 
ATOM     13  N   UNL     1     -14.593  -3.382  -2.607  0.00  0.00    -0.228 NA
ATOM     14  C   UNL     1     -15.207  -2.205  -2.864  0.00  0.00    +0.156 A 
ATOM     15  N   UNL     1     -14.371  -1.125  -3.136  0.00  0.00    -0.295 N 
ATOM     16  H   UNL     1     -13.391  -1.365  -3.091  0.00  0.00    +0.154 HD
ATOM     17  C   UNL     1     -14.761   0.195  -3.361  0.00  0.00    +0.065 A 
ATOM     18  C   UNL     1     -13.792   1.182  -3.550  0.00  0.00    +0.031 A 
ATOM     19  C   UNL     1     -14.175   2.505  -3.760  0.00  0.00    +0.069 A 
ENDROOT
BRANCH   1  20
ATOM     20  O   UNL     1     -15.992   4.080  -3.945  0.00  0.00    -0.480 OA
ATOM     21  C   UNL     1     -17.006   4.191  -4.937  0.00  0.00    +0.279 C 
ENDBRANCH   1  20
TORSDOF 1
ENDMDL
MODEL 7
REMARK VINA RESULT:      -6.4      2.641      7.171
REMARK  Name = min_compound943.pdb
REMARK  2 active torsions:
REMARK  status: ('A' for Active; 'I' for Inactive)
REMARK    1  A    between atoms: _1  and  _3
REMARK    2  A    between atoms: _1  and  _21
REMARK                            x       y       z     vdW  Elec       q    Type
REMARK                         _______ _______ _______ _____ _____    ______ ____
ROOT
ATOM      1  C   UNL     1     -10.928   0.585 -16.836  0.00  0.00    +0.216 A 
ATOM      2  N   UNL     1     -12.196   0.942 -16.558  0.00  0.00    -0.204 NA
ATOM      3  C   UNL     1     -12.525   2.252 -16.680  0.00  0.00    +0.128 A 
ATOM      4  S   UNL     1     -14.224   2.634 -16.285  0.00  0.00    -0.045 S 
ATOM      5  C   UNL     1     -14.329   4.376 -16.630  0.00  0.00    +0.144 A 
ATOM      6  N   UNL     1     -15.558   4.931 -16.472  0.00  0.00    -0.235 NA
ATOM      7  C   UNL     1     -15.670   6.246 -16.729  0.00  0.00    +0.091 A 
ATOM      8  C   UNL     1     -16.905   6.867 -16.591  0.00  0.00    +0.030 A 
ATOM      9  C   UNL     1     -17.067   8.229 -16.851  0.00  0.00    +0.002 A 
ATOM     10  C   UNL     1     -15.973   8.984 -17.254  0.00  0.00    +0.002 A 
ATOM     11  C   UNL     1     -14.728   8.370 -17.395  0.00  0.00    +0.030 A 
ATOM     12  C   UNL     1     -14.555   7.015 -17.141  0.00  0.00    +0.091 A 
ATOM     13  N   UNL     1     -13.336   6.461 -17.293  0.00  0.00    -0.228 NA
ATOM     14  C   UNL     1     -13.226   5.138 -17.039  0.00  0.00    +0.156 A 
ATOM     15  N   UNL     1     -11.961   4.584 -17.216  0.00  0.00    -0.295 N 
ATOM     16  H   UNL     1     -11.278   5.257 -17.532  0.00  0.00    +0.154 HD
ATOM     17  C   UNL     1     -11.614   3.239 -17.085  0.00  0.00    +0.065 A 
ATOM     18  C   UNL     1     -10.310   2.828 -17.368  0.00  0.00    +0.031 A 
ATOM     19  C   UNL     1      -9.961   1.485 -17.254  0.00  0.00    +0.069 A 
ENDROOT
BRANCH   1  20
ATOM     20  O   UNL     1     -10.688  -0.759 -16.747  0.00  0.00    -0.480 OA
ATOM     21  C   UNL     1      -9.626  -1.074 -15.854  0.00  0.00    +0.279 C 
ENDBRANCH   1  20
TORSDOF 1
ENDMDL
MODEL 8
REMARK VINA RESULT:      -6.2     12.244     13.189
REMARK  Name = min_compound943.pdb
REMARK  2 active torsions:
REMARK  status: ('A' for Active; 'I' for Inactive)
REMARK    1  A    between atoms: _1  and  _3
REMARK    2  A    between atoms: _1  and  _21
REMARK                            x       y       z     vdW  Elec       q    Type
REMARK                         _______ _______ _______ _____ _____    ______ ____
ROOT
ATOM      1  C   UNL     1     -16.335   2.931  -8.537  0.00  0.00    +0.216 A 
ATOM      2  N   UNL     1     -15.557   1.888  -8.191  0.00  0.00    -0.204 NA
ATOM      3  C   UNL     1     -15.719   1.363  -6.951  0.00  0.00    +0.128 A 
ATOM      4  S   UNL     1     -14.642  -0.011  -6.576  0.00  0.00    -0.045 S 
ATOM      5  C   UNL     1     -15.173  -0.497  -4.949  0.00  0.00    +0.144 A 
ATOM      6  N   UNL     1     -14.549  -1.587  -4.431  0.00  0.00    -0.235 NA
ATOM      7  C   UNL     1     -14.931  -1.981  -3.204  0.00  0.00    +0.091 A 
ATOM      8  C   UNL     1     -14.333  -3.095  -2.627  0.00  0.00    +0.030 A 
ATOM      9  C   UNL     1     -14.702  -3.541  -1.356  0.00  0.00    +0.002 A 
ATOM     10  C   UNL     1     -15.685  -2.860  -0.650  0.00  0.00    +0.002 A 
ATOM     11  C   UNL     1     -16.291  -1.740  -1.220  0.00  0.00    +0.030 A 
ATOM     12  C   UNL     1     -15.934  -1.288  -2.485  0.00  0.00    +0.091 A 
ATOM     13  N   UNL     1     -16.547  -0.205  -3.000  0.00  0.00    -0.228 NA
ATOM     14  C   UNL     1     -16.166   0.188  -4.236  0.00  0.00    +0.156 A 
ATOM     15  N   UNL     1     -16.823   1.301  -4.755  0.00  0.00    -0.295 N 
ATOM     16  H   UNL     1     -17.525   1.670  -4.130  0.00  0.00    +0.154 HD
ATOM     17  C   UNL     1     -16.655   1.850  -6.026  0.00  0.00    +0.065 A 
ATOM     18  C   UNL     1     -17.446   2.930  -6.425  0.00  0.00    +0.031 A 
ATOM     19  C   UNL     1     -17.295   3.473  -7.699  0.00  0.00    +0.069 A 
ENDROOT
BRANCH   1  20
ATOM     20  O   UNL     1     -16.154   3.367  -9.821  0.00  0.00    -0.480 OA
ATOM     21  C   UNL     1     -17.252   3.058 -10.671  0.00  0.00    +0.279 C 
ENDBRANCH   1  20
TORSDOF 1
ENDMDL
MODEL 9
REMARK VINA RESULT:      -6.1     10.117     10.815
REMARK  Name = min_compound943.pdb
REMARK  2 active torsions:
REMARK  status: ('A' for Active; 'I' for Inactive)
REMARK    1  A    between atoms: _1  and  _3
REMARK    2  A    between atoms: _1  and  _21
REMARK                            x       y       z     vdW  Elec       q    Type
REMARK                         _______ _______ _______ _____ _____    ______ ____
ROOT
ATOM      1  C   UNL     1     -18.240   3.740 -11.127  0.00  0.00    +0.216 A 
ATOM      2  N   UNL     1     -18.716   2.998 -10.109  0.00  0.00    -0.204 NA
ATOM      3  C   UNL     1     -17.831   2.555  -9.182  0.00  0.00    +0.128 A 
ATOM      4  S   UNL     1     -18.548   1.575  -7.874  0.00  0.00    -0.045 S 
ATOM      5  C   UNL     1     -17.156   1.245  -6.817  0.00  0.00    +0.144 A 
ATOM      6  N   UNL     1     -17.433   0.553  -5.682  0.00  0.00    -0.235 NA
ATOM      7  C   UNL     1     -16.402   0.291  -4.860  0.00  0.00    +0.091 A 
ATOM      8  C   UNL     1     -16.627  -0.407  -3.681  0.00  0.00    +0.030 A 
ATOM      9  C   UNL     1     -15.586  -0.697  -2.797  0.00  0.00    +0.002 A 
ATOM     10  C   UNL     1     -14.296  -0.282  -3.100  0.00  0.00    +0.002 A 
ATOM     11  C   UNL     1     -14.059   0.420  -4.282  0.00  0.00    +0.030 A 
ATOM     12  C   UNL     1     -15.087   0.716  -5.168  0.00  0.00    +0.091 A 
ATOM     13  N   UNL     1     -14.816   1.399  -6.297  0.00  0.00    -0.228 NA
ATOM     14  C   UNL     1     -15.855   1.666  -7.120  0.00  0.00    +0.156 A 
ATOM     15  N   UNL     1     -15.553   2.386  -8.274  0.00  0.00    -0.295 N 
ATOM     16  H   UNL     1     -14.576   2.632  -8.339  0.00  0.00    +0.154 HD
ATOM     17  C   UNL     1     -16.457   2.838  -9.234  0.00  0.00    +0.065 A 
ATOM     18  C   UNL     1     -16.004   3.613 -10.303  0.00  0.00    +0.031 A 
ATOM     19  C   UNL     1     -16.904   4.081 -11.258  0.00  0.00    +0.069 A 
ENDROOT
BRANCH   1  20
ATOM     20  O   UNL     1     -19.200   4.198 -11.988  0.00  0.00    -0.480 OA
ATOM     21  C   UNL     1     -18.683   5.083 -12.975  0.00  0.00    +0.279 C 
ENDBRANCH   1  20
TORSDOF 1
ENDMDL
