MODEL 1
REMARK VINA RESULT:      -6.9      0.000      0.000
REMARK  Name = min_compound929.pdb
REMARK  4 active torsions:
REMARK  status: ('A' for Active; 'I' for Inactive)
REMARK    1  A    between atoms: _1  and  _3
REMARK    2  A    between atoms: _1  and  _14
REMARK    3  A    between atoms: _6  and  _8
REMARK    4  A    between atoms: _13  and  _17
REMARK                            x       y       z     vdW  Elec       q    Type
REMARK                         _______ _______ _______ _____ _____    ______ ____
ROOT
ATOM      1  C   UNL     1     -16.116   6.088 -12.486  0.00  0.00    +0.279 C 
ATOM      2  N   UNL     1     -15.297   5.142 -13.038  0.00  0.00    -0.231 N 
ATOM      3  H   UNL     1     -15.246   4.305 -12.480  0.00  0.00    +0.160 HD
ATOM      4  C   UNL     1     -15.216   4.936 -14.403  0.00  0.00    +0.313 C 
ATOM      5  N   UNL     1     -14.311   3.921 -14.688  0.00  0.00    -0.236 N 
ATOM      6  H   UNL     1     -13.543   3.855 -14.041  0.00  0.00    +0.159 HD
ATOM      7  C   UNL     1     -14.165   3.332 -15.931  0.00  0.00    +0.251 C 
ATOM      8  O   UNL     1     -14.965   3.397 -16.854  0.00  0.00    -0.270 OA
ATOM      9  O   UNL     1     -15.832   5.581 -15.237  0.00  0.00    -0.252 OA
ATOM     10  O   UNL     1     -16.338   7.222 -12.869  0.00  0.00    -0.263 OA
ENDROOT
BRANCH   7  11
ATOM     11  C   UNL     1     -12.952   2.483 -16.115  0.00  0.00    +0.038 A 
ATOM     12  C   UNL     1     -11.676   2.904 -15.713  0.00  0.00    +0.019 A 
ATOM     13  C   UNL     1     -10.576   2.049 -15.855  0.00  0.00    +0.085 A 
ATOM     14  C   UNL     1     -10.754   0.765 -16.393  0.00  0.00    +0.273 A 
ATOM     15  C   UNL     1     -12.026   0.335 -16.793  0.00  0.00    +0.085 A 
ATOM     16  C   UNL     1     -13.120   1.195 -16.648  0.00  0.00    +0.019 A 
BRANCH  14  17
ATOM     17  N   UNL     1      -9.603  -0.139 -16.518  0.00  0.00    +0.080 N 
ATOM     18  O   UNL     1      -8.818   0.060 -17.457  0.00  0.00    +0.041 OA
ATOM     19  O   UNL     1      -9.485  -1.044 -15.681  0.00  0.00    -0.576 OA
ENDBRANCH  14  17
ENDBRANCH   7  11
BRANCH   1  20
ATOM     20  S   UNL     1     -16.658   5.499 -10.932  0.00  0.00    -0.071 S 
ATOM     21  C   UNL     1     -15.655   4.441 -10.579  0.00  0.00    +0.094 C 
ENDBRANCH   1  20
TORSDOF 3
ENDMDL
MODEL 2
REMARK VINA RESULT:      -6.7      0.173      1.331
REMARK  Name = min_compound929.pdb
REMARK  4 active torsions:
REMARK  status: ('A' for Active; 'I' for Inactive)
REMARK    1  A    between atoms: _1  and  _3
REMARK    2  A    between atoms: _1  and  _14
REMARK    3  A    between atoms: _6  and  _8
REMARK    4  A    between atoms: _13  and  _17
REMARK                            x       y       z     vdW  Elec       q    Type
REMARK                         _______ _______ _______ _____ _____    ______ ____
ROOT
ATOM      1  C   UNL     1     -16.226   5.957 -12.513  0.00  0.00    +0.279 C 
ATOM      2  N   UNL     1     -15.423   4.990 -13.052  0.00  0.00    -0.231 N 
ATOM      3  H   UNL     1     -15.492   4.115 -12.559  0.00  0.00    +0.160 HD
ATOM      4  C   UNL     1     -15.210   4.876 -14.414  0.00  0.00    +0.313 C 
ATOM      5  N   UNL     1     -14.355   3.815 -14.684  0.00  0.00    -0.236 N 
ATOM      6  H   UNL     1     -13.667   3.642 -13.970  0.00  0.00    +0.159 HD
ATOM      7  C   UNL     1     -14.118   3.306 -15.948  0.00  0.00    +0.251 C 
ATOM      8  O   UNL     1     -14.808   3.500 -16.940  0.00  0.00    -0.270 OA
ATOM      9  O   UNL     1     -15.684   5.626 -15.252  0.00  0.00    -0.252 OA
ATOM     10  O   UNL     1     -16.323   7.130 -12.826  0.00  0.00    -0.263 OA
ENDROOT
BRANCH   7  11
ATOM     11  C   UNL     1     -12.956   2.378 -16.074  0.00  0.00    +0.038 A 
ATOM     12  C   UNL     1     -13.099   1.060 -16.531  0.00  0.00    +0.019 A 
ATOM     13  C   UNL     1     -11.971   0.243 -16.686  0.00  0.00    +0.085 A 
ATOM     14  C   UNL     1     -10.696   0.750 -16.391  0.00  0.00    +0.273 A 
ATOM     15  C   UNL     1     -10.545   2.067 -15.938  0.00  0.00    +0.085 A 
ATOM     16  C   UNL     1     -11.676   2.876 -15.786  0.00  0.00    +0.019 A 
BRANCH  14  17
ATOM     17  N   UNL     1      -9.513  -0.100 -16.577  0.00  0.00    +0.080 N 
ATOM     18  O   UNL     1      -9.274  -0.948 -15.705  0.00  0.00    +0.041 OA
ATOM     19  O   UNL     1      -8.826   0.080 -17.592  0.00  0.00    -0.576 OA
ENDBRANCH  14  17
ENDBRANCH   7  11
BRANCH   1  20
ATOM     20  S   UNL     1     -16.974   5.304 -11.074  0.00  0.00    -0.071 S 
ATOM     21  C   UNL     1     -15.910   4.427 -10.483  0.00  0.00    +0.094 C 
ENDBRANCH   1  20
TORSDOF 3
ENDMDL
MODEL 3
REMARK VINA RESULT:      -6.2      3.468      7.454
REMARK  Name = min_compound929.pdb
REMARK  4 active torsions:
REMARK  status: ('A' for Active; 'I' for Inactive)
REMARK    1  A    between atoms: _1  and  _3
REMARK    2  A    between atoms: _1  and  _14
REMARK    3  A    between atoms: _6  and  _8
REMARK    4  A    between atoms: _13  and  _17
REMARK                            x       y       z     vdW  Elec       q    Type
REMARK                         _______ _______ _______ _____ _____    ______ ____
ROOT
ATOM      1  C   UNL     1     -11.868   1.693 -17.655  0.00  0.00    +0.279 C 
ATOM      2  N   UNL     1     -12.524   2.060 -16.513  0.00  0.00    -0.231 N 
ATOM      3  H   UNL     1     -11.917   2.074 -15.709  0.00  0.00    +0.160 HD
ATOM      4  C   UNL     1     -13.521   3.018 -16.506  0.00  0.00    +0.313 C 
ATOM      5  N   UNL     1     -14.015   3.194 -15.219  0.00  0.00    -0.236 N 
ATOM      6  H   UNL     1     -14.000   2.364 -14.650  0.00  0.00    +0.159 HD
ATOM      7  C   UNL     1     -14.858   4.223 -14.841  0.00  0.00    +0.251 C 
ATOM      8  O   UNL     1     -15.056   5.255 -15.468  0.00  0.00    -0.270 OA
ATOM      9  O   UNL     1     -13.926   3.601 -17.499  0.00  0.00    -0.252 OA
ATOM     10  O   UNL     1     -12.321   1.514 -18.771  0.00  0.00    -0.263 OA
ENDROOT
BRANCH   7  11
ATOM     11  C   UNL     1     -15.516   4.076 -13.509  0.00  0.00    +0.038 A 
ATOM     12  C   UNL     1     -16.619   3.234 -13.309  0.00  0.00    +0.019 A 
ATOM     13  C   UNL     1     -17.167   3.086 -12.028  0.00  0.00    +0.085 A 
ATOM     14  C   UNL     1     -16.603   3.776 -10.943  0.00  0.00    +0.273 A 
ATOM     15  C   UNL     1     -15.499   4.616 -11.134  0.00  0.00    +0.085 A 
ATOM     16  C   UNL     1     -14.957   4.759 -12.416  0.00  0.00    +0.019 A 
BRANCH  14  17
ATOM     17  N   UNL     1     -17.165   3.600  -9.597  0.00  0.00    +0.080 N 
ATOM     18  O   UNL     1     -18.016   2.711  -9.443  0.00  0.00    +0.041 OA
ATOM     19  O   UNL     1     -16.758   4.348  -8.699  0.00  0.00    -0.576 OA
ENDBRANCH  14  17
ENDBRANCH   7  11
BRANCH   1  20
ATOM     20  S   UNL     1     -10.228   1.261 -17.227  0.00  0.00    -0.071 S 
ATOM     21  C   UNL     1     -10.287   1.059 -15.742  0.00  0.00    +0.094 C 
ENDBRANCH   1  20
TORSDOF 3
ENDMDL
MODEL 4
REMARK VINA RESULT:      -6.0     12.099     14.945
REMARK  Name = min_compound929.pdb
REMARK  4 active torsions:
REMARK  status: ('A' for Active; 'I' for Inactive)
REMARK    1  A    between atoms: _1  and  _3
REMARK    2  A    between atoms: _1  and  _14
REMARK    3  A    between atoms: _6  and  _8
REMARK    4  A    between atoms: _13  and  _17
REMARK                            x       y       z     vdW  Elec       q    Type
REMARK                         _______ _______ _______ _____ _____    ______ ____
ROOT
ATOM      1  C   UNL     1     -14.963  -6.750  -2.199  0.00  0.00    +0.279 C 
ATOM      2  N   UNL     1     -15.200  -5.417  -2.388  0.00  0.00    -0.231 N 
ATOM      3  H   UNL     1     -16.132  -5.150  -2.117  0.00  0.00    +0.160 HD
ATOM      4  C   UNL     1     -14.232  -4.453  -2.172  0.00  0.00    +0.313 C 
ATOM      5  N   UNL     1     -14.738  -3.188  -2.441  0.00  0.00    -0.236 N 
ATOM      6  H   UNL     1     -15.432  -3.164  -3.169  0.00  0.00    +0.159 HD
ATOM      7  C   UNL     1     -14.097  -2.006  -2.117  0.00  0.00    +0.251 C 
ATOM      8  O   UNL     1     -13.176  -1.885  -1.321  0.00  0.00    -0.270 OA
ATOM      9  O   UNL     1     -13.086  -4.691  -1.823  0.00  0.00    -0.252 OA
ATOM     10  O   UNL     1     -13.973  -7.398  -2.488  0.00  0.00    -0.263 OA
ENDROOT
BRANCH   7  11
ATOM     11  C   UNL     1     -14.646  -0.769  -2.746  0.00  0.00    +0.038 A 
ATOM     12  C   UNL     1     -16.022  -0.573  -2.935  0.00  0.00    +0.019 A 
ATOM     13  C   UNL     1     -16.492   0.628  -3.480  0.00  0.00    +0.085 A 
ATOM     14  C   UNL     1     -15.584   1.641  -3.827  0.00  0.00    +0.273 A 
ATOM     15  C   UNL     1     -14.209   1.455  -3.638  0.00  0.00    +0.085 A 
ATOM     16  C   UNL     1     -13.746   0.252  -3.094  0.00  0.00    +0.019 A 
BRANCH  14  17
ATOM     17  N   UNL     1     -16.083   2.909  -4.375  0.00  0.00    +0.080 N 
ATOM     18  O   UNL     1     -16.851   2.851  -5.347  0.00  0.00    +0.041 OA
ATOM     19  O   UNL     1     -15.708   3.959  -3.835  0.00  0.00    -0.576 OA
ENDBRANCH  14  17
ENDBRANCH   7  11
BRANCH   1  20
ATOM     20  S   UNL     1     -16.451  -7.498  -1.667  0.00  0.00    -0.071 S 
ATOM     21  C   UNL     1     -17.499  -6.469  -1.972  0.00  0.00    +0.094 C 
ENDBRANCH   1  20
TORSDOF 3
ENDMDL
MODEL 5
REMARK VINA RESULT:      -5.9      3.030      3.713
REMARK  Name = min_compound929.pdb
REMARK  4 active torsions:
REMARK  status: ('A' for Active; 'I' for Inactive)
REMARK    1  A    between atoms: _1  and  _3
REMARK    2  A    between atoms: _1  and  _14
REMARK    3  A    between atoms: _6  and  _8
REMARK    4  A    between atoms: _13  and  _17
REMARK                            x       y       z     vdW  Elec       q    Type
REMARK                         _______ _______ _______ _____ _____    ______ ____
ROOT
ATOM      1  C   UNL     1     -16.704   6.839 -17.926  0.00  0.00    +0.279 C 
ATOM      2  N   UNL     1     -15.631   6.021 -17.699  0.00  0.00    -0.231 N 
ATOM      3  H   UNL     1     -14.764   6.435 -17.999  0.00  0.00    +0.160 HD
ATOM      4  C   UNL     1     -15.537   5.215 -16.580  0.00  0.00    +0.313 C 
ATOM      5  N   UNL     1     -14.351   4.491 -16.603  0.00  0.00    -0.236 N 
ATOM      6  H   UNL     1     -14.029   4.249 -17.525  0.00  0.00    +0.159 HD
ATOM      7  C   UNL     1     -13.859   3.765 -15.533  0.00  0.00    +0.251 C 
ATOM      8  O   UNL     1     -14.214   3.877 -14.367  0.00  0.00    -0.270 OA
ATOM      9  O   UNL     1     -16.392   5.133 -15.713  0.00  0.00    -0.252 OA
ATOM     10  O   UNL     1     -17.887   6.613 -17.745  0.00  0.00    -0.263 OA
ENDROOT
BRANCH   7  11
ATOM     11  C   UNL     1     -12.743   2.822 -15.838  0.00  0.00    +0.038 A 
ATOM     12  C   UNL     1     -11.421   3.078 -15.448  0.00  0.00    +0.019 A 
ATOM     13  C   UNL     1     -10.417   2.136 -15.708  0.00  0.00    +0.085 A 
ATOM     14  C   UNL     1     -10.739   0.931 -16.352  0.00  0.00    +0.273 A 
ATOM     15  C   UNL     1     -12.058   0.667 -16.741  0.00  0.00    +0.085 A 
ATOM     16  C   UNL     1     -13.055   1.612 -16.478  0.00  0.00    +0.019 A 
BRANCH  14  17
ATOM     17  N   UNL     1      -9.688  -0.064 -16.601  0.00  0.00    +0.080 N 
ATOM     18  O   UNL     1      -8.991   0.080 -17.616  0.00  0.00    +0.041 OA
ATOM     19  O   UNL     1      -9.562  -0.988 -15.785  0.00  0.00    -0.576 OA
ENDBRANCH  14  17
ENDBRANCH   7  11
BRANCH   1  20
ATOM     20  S   UNL     1     -16.139   8.255 -18.780  0.00  0.00    -0.071 S 
ATOM     21  C   UNL     1     -17.377   9.083 -18.961  0.00  0.00    +0.094 C 
ENDBRANCH   1  20
TORSDOF 3
ENDMDL
MODEL 6
REMARK VINA RESULT:      -5.9      3.024      7.796
REMARK  Name = min_compound929.pdb
REMARK  4 active torsions:
REMARK  status: ('A' for Active; 'I' for Inactive)
REMARK    1  A    between atoms: _1  and  _3
REMARK    2  A    between atoms: _1  and  _14
REMARK    3  A    between atoms: _6  and  _8
REMARK    4  A    between atoms: _13  and  _17
REMARK                            x       y       z     vdW  Elec       q    Type
REMARK                         _______ _______ _______ _____ _____    ______ ____
ROOT
ATOM      1  C   UNL     1     -11.997   2.074 -16.881  0.00  0.00    +0.279 C 
ATOM      2  N   UNL     1     -12.633   2.777 -15.895  0.00  0.00    -0.231 N 
ATOM      3  H   UNL     1     -12.056   3.507 -15.511  0.00  0.00    +0.160 HD
ATOM      4  C   UNL     1     -13.984   3.068 -15.945  0.00  0.00    +0.313 C 
ATOM      5  N   UNL     1     -14.367   3.787 -14.819  0.00  0.00    -0.236 N 
ATOM      6  H   UNL     1     -13.849   3.563 -13.986  0.00  0.00    +0.159 HD
ATOM      7  C   UNL     1     -15.592   4.413 -14.672  0.00  0.00    +0.251 C 
ATOM      8  O   UNL     1     -16.377   4.673 -15.574  0.00  0.00    -0.270 OA
ATOM      9  O   UNL     1     -14.734   2.714 -16.840  0.00  0.00    -0.252 OA
ATOM     10  O   UNL     1     -12.386   1.096 -17.493  0.00  0.00    -0.263 OA
ENDROOT
BRANCH   7  11
ATOM     11  C   UNL     1     -15.931   4.874 -13.294  0.00  0.00    +0.038 A 
ATOM     12  C   UNL     1     -15.131   4.566 -12.185  0.00  0.00    +0.019 A 
ATOM     13  C   UNL     1     -15.460   5.068 -10.919  0.00  0.00    +0.085 A 
ATOM     14  C   UNL     1     -16.589   5.889 -10.765  0.00  0.00    +0.273 A 
ATOM     15  C   UNL     1     -17.391   6.205 -11.869  0.00  0.00    +0.085 A 
ATOM     16  C   UNL     1     -17.055   5.699 -13.130  0.00  0.00    +0.019 A 
BRANCH  14  17
ATOM     17  N   UNL     1     -16.917   6.434  -9.441  0.00  0.00    +0.080 N 
ATOM     18  O   UNL     1     -16.738   5.699  -8.459  0.00  0.00    +0.041 OA
ATOM     19  O   UNL     1     -17.354   7.591  -9.386  0.00  0.00    -0.576 OA
ENDBRANCH  14  17
ENDBRANCH   7  11
BRANCH   1  20
ATOM     20  S   UNL     1     -10.353   2.658 -16.993  0.00  0.00    -0.071 S 
ATOM     21  C   UNL     1     -10.379   3.951 -16.232  0.00  0.00    +0.094 C 
ENDBRANCH   1  20
TORSDOF 3
ENDMDL
MODEL 7
REMARK VINA RESULT:      -5.9      3.026      3.142
REMARK  Name = min_compound929.pdb
REMARK  4 active torsions:
REMARK  status: ('A' for Active; 'I' for Inactive)
REMARK    1  A    between atoms: _1  and  _3
REMARK    2  A    between atoms: _1  and  _14
REMARK    3  A    between atoms: _6  and  _8
REMARK    4  A    between atoms: _13  and  _17
REMARK                            x       y       z     vdW  Elec       q    Type
REMARK                         _______ _______ _______ _____ _____    ______ ____
ROOT
ATOM      1  C   UNL     1     -15.664   7.923 -15.788  0.00  0.00    +0.279 C 
ATOM      2  N   UNL     1     -14.969   6.768 -16.019  0.00  0.00    -0.231 N 
ATOM      3  H   UNL     1     -15.521   5.945 -15.837  0.00  0.00    +0.160 HD
ATOM      4  C   UNL     1     -14.061   6.642 -17.054  0.00  0.00    +0.313 C 
ATOM      5  N   UNL     1     -13.500   5.371 -17.056  0.00  0.00    -0.236 N 
ATOM      6  H   UNL     1     -13.406   4.956 -16.144  0.00  0.00    +0.159 HD
ATOM      7  C   UNL     1     -12.727   4.860 -18.083  0.00  0.00    +0.251 C 
ATOM      8  O   UNL     1     -12.661   5.307 -19.220  0.00  0.00    -0.270 OA
ATOM      9  O   UNL     1     -13.774   7.537 -17.833  0.00  0.00    -0.252 OA
ATOM     10  O   UNL     1     -15.271   9.074 -15.846  0.00  0.00    -0.263 OA
ENDROOT
BRANCH   7  11
ATOM     11  C   UNL     1     -11.974   3.609 -17.777  0.00  0.00    +0.038 A 
ATOM     12  C   UNL     1     -10.801   3.611 -17.008  0.00  0.00    +0.019 A 
ATOM     13  C   UNL     1     -10.160   2.405 -16.700  0.00  0.00    +0.085 A 
ATOM     14  C   UNL     1     -10.699   1.191 -17.155  0.00  0.00    +0.273 A 
ATOM     15  C   UNL     1     -11.872   1.180 -17.921  0.00  0.00    +0.085 A 
ATOM     16  C   UNL     1     -12.507   2.389 -18.224  0.00  0.00    +0.019 A 
BRANCH  14  17
ATOM     17  N   UNL     1     -10.038  -0.074 -16.810  0.00  0.00    +0.080 N 
ATOM     18  O   UNL     1      -9.548  -0.174 -15.676  0.00  0.00    +0.041 OA
ATOM     19  O   UNL     1     -10.008  -0.964 -17.672  0.00  0.00    -0.576 OA
ENDBRANCH  14  17
ENDBRANCH   7  11
BRANCH   1  20
ATOM     20  S   UNL     1     -17.228   7.497 -15.133  0.00  0.00    -0.071 S 
ATOM     21  C   UNL     1     -17.927   8.816 -14.987  0.00  0.00    +0.094 C 
ENDBRANCH   1  20
TORSDOF 3
ENDMDL
MODEL 8
REMARK VINA RESULT:      -5.8      4.593      5.386
REMARK  Name = min_compound929.pdb
REMARK  4 active torsions:
REMARK  status: ('A' for Active; 'I' for Inactive)
REMARK    1  A    between atoms: _1  and  _3
REMARK    2  A    between atoms: _1  and  _14
REMARK    3  A    between atoms: _6  and  _8
REMARK    4  A    between atoms: _13  and  _17
REMARK                            x       y       z     vdW  Elec       q    Type
REMARK                         _______ _______ _______ _____ _____    ______ ____
ROOT
ATOM      1  C   UNL     1     -14.967   7.172 -20.382  0.00  0.00    +0.279 C 
ATOM      2  N   UNL     1     -14.244   6.119 -19.894  0.00  0.00    -0.231 N 
ATOM      3  H   UNL     1     -13.847   5.554 -20.627  0.00  0.00    +0.160 HD
ATOM      4  C   UNL     1     -13.474   6.214 -18.749  0.00  0.00    +0.313 C 
ATOM      5  N   UNL     1     -12.851   5.002 -18.481  0.00  0.00    -0.236 N 
ATOM      6  H   UNL     1     -13.377   4.192 -18.765  0.00  0.00    +0.159 HD
ATOM      7  C   UNL     1     -11.851   4.829 -17.541  0.00  0.00    +0.251 C 
ATOM      8  O   UNL     1     -11.184   5.720 -17.032  0.00  0.00    -0.270 OA
ATOM      9  O   UNL     1     -13.384   7.217 -18.059  0.00  0.00    -0.252 OA
ATOM     10  O   UNL     1     -15.626   7.994 -19.770  0.00  0.00    -0.263 OA
ENDROOT
BRANCH   7  11
ATOM     11  C   UNL     1     -11.520   3.417 -17.188  0.00  0.00    +0.038 A 
ATOM     12  C   UNL     1     -10.750   3.090 -16.063  0.00  0.00    +0.019 A 
ATOM     13  C   UNL     1     -10.513   1.747 -15.740  0.00  0.00    +0.085 A 
ATOM     14  C   UNL     1     -11.055   0.730 -16.541  0.00  0.00    +0.273 A 
ATOM     15  C   UNL     1     -11.829   1.049 -17.664  0.00  0.00    +0.085 A 
ATOM     16  C   UNL     1     -12.062   2.392 -17.980  0.00  0.00    +0.019 A 
BRANCH  14  17
ATOM     17  N   UNL     1     -10.825  -0.677 -16.186  0.00  0.00    +0.080 N 
ATOM     18  O   UNL     1      -9.652  -1.042 -16.024  0.00  0.00    +0.041 OA
ATOM     19  O   UNL     1     -11.814  -1.413 -16.072  0.00  0.00    -0.576 OA
ENDBRANCH  14  17
ENDBRANCH   7  11
BRANCH   1  20
ATOM     20  S   UNL     1     -15.017   7.039 -22.124  0.00  0.00    -0.071 S 
ATOM     21  C   UNL     1     -13.793   6.238 -22.458  0.00  0.00    +0.094 C 
ENDBRANCH   1  20
TORSDOF 3
ENDMDL
MODEL 9
REMARK VINA RESULT:      -5.8      5.000      7.476
REMARK  Name = min_compound929.pdb
REMARK  4 active torsions:
REMARK  status: ('A' for Active; 'I' for Inactive)
REMARK    1  A    between atoms: _1  and  _3
REMARK    2  A    between atoms: _1  and  _14
REMARK    3  A    between atoms: _6  and  _8
REMARK    4  A    between atoms: _13  and  _17
REMARK                            x       y       z     vdW  Elec       q    Type
REMARK                         _______ _______ _______ _____ _____    ______ ____
ROOT
ATOM      1  C   UNL     1     -16.035   1.165  -5.499  0.00  0.00    +0.279 C 
ATOM      2  N   UNL     1     -15.919   1.538  -6.810  0.00  0.00    -0.231 N 
ATOM      3  H   UNL     1     -15.400   0.869  -7.354  0.00  0.00    +0.160 HD
ATOM      4  C   UNL     1     -16.937   2.180  -7.491  0.00  0.00    +0.313 C 
ATOM      5  N   UNL     1     -16.553   2.443  -8.800  0.00  0.00    -0.236 N 
ATOM      6  H   UNL     1     -15.570   2.621  -8.918  0.00  0.00    +0.159 HD
ATOM      7  C   UNL     1     -17.413   2.874  -9.794  0.00  0.00    +0.251 C 
ATOM      8  O   UNL     1     -18.635   2.812  -9.762  0.00  0.00    -0.270 OA
ATOM      9  O   UNL     1     -18.008   2.495  -6.997  0.00  0.00    -0.252 OA
ATOM     10  O   UNL     1     -16.537   1.777  -4.573  0.00  0.00    -0.263 OA
ENDROOT
BRANCH   7  11
ATOM     11  C   UNL     1     -16.771   3.386 -11.040  0.00  0.00    +0.038 A 
ATOM     12  C   UNL     1     -15.679   4.266 -11.011  0.00  0.00    +0.019 A 
ATOM     13  C   UNL     1     -15.075   4.675 -12.206  0.00  0.00    +0.085 A 
ATOM     14  C   UNL     1     -15.558   4.196 -13.434  0.00  0.00    +0.273 A 
ATOM     15  C   UNL     1     -16.645   3.314 -13.471  0.00  0.00    +0.085 A 
ATOM     16  C   UNL     1     -17.245   2.910 -12.273  0.00  0.00    +0.019 A 
BRANCH  14  17
ATOM     17  N   UNL     1     -14.906   4.608 -14.684  0.00  0.00    +0.080 N 
ATOM     18  O   UNL     1     -13.912   3.964 -15.051  0.00  0.00    +0.041 OA
ATOM     19  O   UNL     1     -15.387   5.572 -15.296  0.00  0.00    -0.576 OA
ENDBRANCH  14  17
ENDBRANCH   7  11
BRANCH   1  20
ATOM     20  S   UNL     1     -15.105  -0.296  -5.263  0.00  0.00    -0.071 S 
ATOM     21  C   UNL     1     -13.681   0.174  -5.314  0.00  0.00    +0.094 C 
ENDBRANCH   1  20
TORSDOF 3
ENDMDL
