MODEL 1
REMARK VINA RESULT:      -6.2      0.000      0.000
REMARK  Name = min_compound91.pdb
REMARK  2 active torsions:
REMARK  status: ('A' for Active; 'I' for Inactive)
REMARK    1  A    between atoms: _6  and  _8
REMARK    2  A    between atoms: _7  and  _14
REMARK                            x       y       z     vdW  Elec       q    Type
REMARK                         _______ _______ _______ _____ _____    ______ ____
ROOT
ATOM      1  H   UNL     1     -14.950   4.649 -17.456  0.00  0.00    +0.211 HD
ATOM      2  N   UNL     1     -14.574   3.714 -17.525  0.00  0.00    -0.182 N 
ATOM      3  C   UNL     1     -13.666   3.267 -16.601  0.00  0.00    +0.285 A 
ATOM      4  C   UNL     1     -12.855   2.220 -17.234  0.00  0.00    +0.082 A 
ATOM      5  C   UNL     1     -13.233   2.291 -18.517  0.00  0.00    +0.220 A 
ATOM      6  O   UNL     1     -13.554   3.700 -15.469  0.00  0.00    -0.265 OA
ATOM      7  O   UNL     1     -14.240   3.205 -18.797  0.00  0.00    -0.362 OA
ENDROOT
BRANCH   4   8
ATOM      8  C   UNL     1     -11.787   1.364 -16.592  0.00  0.00    +0.029 C 
ATOM      9  C   UNL     1     -10.381   1.866 -16.732  0.00  0.00    +0.008 C 
ATOM     10  C   UNL     1      -9.746   0.558 -17.435  0.00  0.00    +0.001 C 
ATOM     11  C   UNL     1      -9.481  -0.531 -16.292  0.00  0.00    +0.000 C 
ATOM     12  C   UNL     1     -10.887  -1.033 -16.152  0.00  0.00    +0.001 C 
ATOM     13  C   UNL     1     -12.038  -0.164 -16.690  0.00  0.00    +0.008 C 
ENDBRANCH   4   8
BRANCH   5  14
ATOM     14  N   UNL     1     -12.771   1.562 -19.579  0.00  0.00    -0.327 N 
ATOM     15  H   UNL     1     -13.047   0.585 -19.566  0.00  0.00    +0.145 HD
ATOM     16  H   UNL     1     -12.979   2.019 -20.463  0.00  0.00    +0.145 HD
ENDBRANCH   5  14
TORSDOF 2
ENDMDL
MODEL 2
REMARK VINA RESULT:      -6.0      1.090      2.118
REMARK  Name = min_compound91.pdb
REMARK  2 active torsions:
REMARK  status: ('A' for Active; 'I' for Inactive)
REMARK    1  A    between atoms: _6  and  _8
REMARK    2  A    between atoms: _7  and  _14
REMARK                            x       y       z     vdW  Elec       q    Type
REMARK                         _______ _______ _______ _____ _____    ______ ____
ROOT
ATOM      1  H   UNL     1     -14.712   3.583 -19.378  0.00  0.00    +0.211 HD
ATOM      2  N   UNL     1     -14.039   3.563 -18.625  0.00  0.00    -0.182 N 
ATOM      3  C   UNL     1     -13.175   2.506 -18.502  0.00  0.00    +0.285 A 
ATOM      4  C   UNL     1     -12.784   2.403 -17.091  0.00  0.00    +0.082 A 
ATOM      5  C   UNL     1     -13.603   3.280 -16.495  0.00  0.00    +0.220 A 
ATOM      6  O   UNL     1     -12.831   1.778 -19.415  0.00  0.00    -0.265 OA
ATOM      7  O   UNL     1     -14.435   3.997 -17.343  0.00  0.00    -0.362 OA
ENDROOT
BRANCH   4   8
ATOM      8  C   UNL     1     -11.779   1.455 -16.478  0.00  0.00    +0.029 C 
ATOM      9  C   UNL     1     -10.350   1.910 -16.516  0.00  0.00    +0.008 C 
ATOM     10  C   UNL     1      -9.732   0.639 -17.298  0.00  0.00    +0.001 C 
ATOM     11  C   UNL     1      -9.559  -0.549 -16.239  0.00  0.00    +0.000 C 
ATOM     12  C   UNL     1     -10.988  -1.005 -16.201  0.00  0.00    +0.001 C 
ATOM     13  C   UNL     1     -12.081  -0.049 -16.713  0.00  0.00    +0.008 C 
ENDBRANCH   4   8
BRANCH   5  14
ATOM     14  N   UNL     1     -13.704   3.574 -15.162  0.00  0.00    -0.327 N 
ATOM     15  H   UNL     1     -14.637   3.460 -14.780  0.00  0.00    +0.145 HD
ATOM     16  H   UNL     1     -12.993   3.091 -14.619  0.00  0.00    +0.145 HD
ENDBRANCH   5  14
TORSDOF 2
ENDMDL
MODEL 3
REMARK VINA RESULT:      -5.8      1.897      2.258
REMARK  Name = min_compound91.pdb
REMARK  2 active torsions:
REMARK  status: ('A' for Active; 'I' for Inactive)
REMARK    1  A    between atoms: _6  and  _8
REMARK    2  A    between atoms: _7  and  _14
REMARK                            x       y       z     vdW  Elec       q    Type
REMARK                         _______ _______ _______ _____ _____    ______ ____
ROOT
ATOM      1  H   UNL     1     -15.427   4.567 -15.929  0.00  0.00    +0.211 HD
ATOM      2  N   UNL     1     -14.621   4.307 -16.480  0.00  0.00    -0.182 N 
ATOM      3  C   UNL     1     -14.065   3.062 -16.342  0.00  0.00    +0.285 A 
ATOM      4  C   UNL     1     -12.651   3.152 -16.727  0.00  0.00    +0.082 A 
ATOM      5  C   UNL     1     -12.469   4.473 -16.863  0.00  0.00    +0.220 A 
ATOM      6  O   UNL     1     -14.656   2.076 -15.942  0.00  0.00    -0.265 OA
ATOM      7  O   UNL     1     -13.599   5.257 -16.685  0.00  0.00    -0.362 OA
ENDROOT
BRANCH   4   8
ATOM      8  C   UNL     1     -11.648   2.026 -16.829  0.00  0.00    +0.029 C 
ATOM      9  C   UNL     1     -12.025   0.902 -17.747  0.00  0.00    +0.008 C 
ATOM     10  C   UNL     1     -11.926  -0.303 -16.676  0.00  0.00    +0.001 C 
ATOM     11  C   UNL     1     -10.378  -0.671 -16.497  0.00  0.00    +0.000 C 
ATOM     12  C   UNL     1     -10.000   0.453 -15.579  0.00  0.00    +0.001 C 
ATOM     13  C   UNL     1     -10.923   1.683 -15.501  0.00  0.00    +0.008 C 
ENDBRANCH   4   8
BRANCH   5  14
ATOM     14  N   UNL     1     -11.317   5.140 -17.180  0.00  0.00    -0.327 N 
ATOM     15  H   UNL     1     -10.756   4.689 -17.895  0.00  0.00    +0.145 HD
ATOM     16  H   UNL     1     -11.498   6.121 -17.381  0.00  0.00    +0.145 HD
ENDBRANCH   5  14
TORSDOF 2
ENDMDL
MODEL 4
REMARK VINA RESULT:      -5.7      1.795      2.368
REMARK  Name = min_compound91.pdb
REMARK  2 active torsions:
REMARK  status: ('A' for Active; 'I' for Inactive)
REMARK    1  A    between atoms: _6  and  _8
REMARK    2  A    between atoms: _7  and  _14
REMARK                            x       y       z     vdW  Elec       q    Type
REMARK                         _______ _______ _______ _____ _____    ______ ____
ROOT
ATOM      1  H   UNL     1     -13.567   6.146 -17.550  0.00  0.00    +0.211 HD
ATOM      2  N   UNL     1     -13.347   5.318 -17.015  0.00  0.00    -0.182 N 
ATOM      3  C   UNL     1     -12.265   4.547 -17.353  0.00  0.00    +0.285 A 
ATOM      4  C   UNL     1     -12.519   3.181 -16.883  0.00  0.00    +0.082 A 
ATOM      5  C   UNL     1     -13.799   3.238 -16.491  0.00  0.00    +0.220 A 
ATOM      6  O   UNL     1     -11.290   4.945 -17.964  0.00  0.00    -0.265 OA
ATOM      7  O   UNL     1     -14.399   4.487 -16.580  0.00  0.00    -0.362 OA
ENDROOT
BRANCH   4   8
ATOM      8  C   UNL     1     -11.583   1.995 -16.939  0.00  0.00    +0.029 C 
ATOM      9  C   UNL     1     -12.033   0.853 -17.802  0.00  0.00    +0.008 C 
ATOM     10  C   UNL     1     -11.994  -0.305 -16.678  0.00  0.00    +0.001 C 
ATOM     11  C   UNL     1     -10.469  -0.754 -16.491  0.00  0.00    +0.000 C 
ATOM     12  C   UNL     1     -10.020   0.387 -15.627  0.00  0.00    +0.001 C 
ATOM     13  C   UNL     1     -10.869   1.671 -15.600  0.00  0.00    +0.008 C 
ENDBRANCH   4   8
BRANCH   5  14
ATOM     14  N   UNL     1     -14.580   2.231 -15.993  0.00  0.00    -0.327 N 
ATOM     15  H   UNL     1     -14.716   2.266 -14.988  0.00  0.00    +0.145 HD
ATOM     16  H   UNL     1     -15.454   2.148 -16.506  0.00  0.00    +0.145 HD
ENDBRANCH   5  14
TORSDOF 2
ENDMDL
MODEL 5
REMARK VINA RESULT:      -5.6      2.770      4.931
REMARK  Name = min_compound91.pdb
REMARK  2 active torsions:
REMARK  status: ('A' for Active; 'I' for Inactive)
REMARK    1  A    between atoms: _6  and  _8
REMARK    2  A    between atoms: _7  and  _14
REMARK                            x       y       z     vdW  Elec       q    Type
REMARK                         _______ _______ _______ _____ _____    ______ ____
ROOT
ATOM      1  H   UNL     1     -11.660  -0.415 -18.510  0.00  0.00    +0.211 HD
ATOM      2  N   UNL     1     -11.848   0.244 -17.768  0.00  0.00    -0.182 N 
ATOM      3  C   UNL     1     -12.282   1.509 -18.064  0.00  0.00    +0.285 A 
ATOM      4  C   UNL     1     -11.888   2.393 -16.961  0.00  0.00    +0.082 A 
ATOM      5  C   UNL     1     -11.095   1.604 -16.223  0.00  0.00    +0.220 A 
ATOM      6  O   UNL     1     -12.867   1.824 -19.085  0.00  0.00    -0.265 OA
ATOM      7  O   UNL     1     -10.973   0.294 -16.664  0.00  0.00    -0.362 OA
ENDROOT
BRANCH   4   8
ATOM      8  C   UNL     1     -12.221   3.857 -16.785  0.00  0.00    +0.029 C 
ATOM      9  C   UNL     1     -13.640   4.158 -16.402  0.00  0.00    +0.008 C 
ATOM     10  C   UNL     1     -13.998   5.144 -17.630  0.00  0.00    +0.001 C 
ATOM     11  C   UNL     1     -13.370   6.579 -17.304  0.00  0.00    +0.000 C 
ATOM     12  C   UNL     1     -11.951   6.278 -17.687  0.00  0.00    +0.001 C 
ATOM     13  C   UNL     1     -11.509   4.807 -17.784  0.00  0.00    +0.008 C 
ENDBRANCH   4   8
BRANCH   5  14
ATOM     14  N   UNL     1     -10.412   1.921 -15.080  0.00  0.00    -0.327 N 
ATOM     15  H   UNL     1     -10.450   2.904 -14.830  0.00  0.00    +0.145 HD
ATOM     16  H   UNL     1     -10.670   1.308 -14.310  0.00  0.00    +0.145 HD
ENDBRANCH   5  14
TORSDOF 2
ENDMDL
MODEL 6
REMARK VINA RESULT:      -5.6     11.267     12.096
REMARK  Name = min_compound91.pdb
REMARK  2 active torsions:
REMARK  status: ('A' for Active; 'I' for Inactive)
REMARK    1  A    between atoms: _6  and  _8
REMARK    2  A    between atoms: _7  and  _14
REMARK                            x       y       z     vdW  Elec       q    Type
REMARK                         _______ _______ _______ _____ _____    ______ ____
ROOT
ATOM      1  H   UNL     1     -17.747   0.942  -9.362  0.00  0.00    +0.211 HD
ATOM      2  N   UNL     1     -17.535   0.929  -8.374  0.00  0.00    -0.182 N 
ATOM      3  C   UNL     1     -16.360   1.465  -7.916  0.00  0.00    +0.285 A 
ATOM      4  C   UNL     1     -16.020   0.798  -6.654  0.00  0.00    +0.082 A 
ATOM      5  C   UNL     1     -16.918  -0.194  -6.595  0.00  0.00    +0.220 A 
ATOM      6  O   UNL     1     -15.716   2.325  -8.490  0.00  0.00    -0.265 OA
ATOM      7  O   UNL     1     -17.849  -0.223  -7.624  0.00  0.00    -0.362 OA
ENDROOT
BRANCH   4   8
ATOM      8  C   UNL     1     -14.868   1.110  -5.725  0.00  0.00    +0.029 C 
ATOM      9  C   UNL     1     -13.961  -0.042  -5.408  0.00  0.00    +0.008 C 
ATOM     10  C   UNL     1     -14.100   0.001  -3.799  0.00  0.00    +0.001 C 
ATOM     11  C   UNL     1     -13.161   1.179  -3.259  0.00  0.00    +0.000 C 
ATOM     12  C   UNL     1     -14.068   2.331  -3.576  0.00  0.00    +0.001 C 
ATOM     13  C   UNL     1     -15.203   2.118  -4.594  0.00  0.00    +0.008 C 
ENDBRANCH   4   8
BRANCH   5  14
ATOM     14  N   UNL     1     -17.048  -1.165  -5.639  0.00  0.00    -0.327 N 
ATOM     15  H   UNL     1     -17.858  -1.764  -5.760  0.00  0.00    +0.145 HD
ATOM     16  H   UNL     1     -16.184  -1.689  -5.521  0.00  0.00    +0.145 HD
ENDBRANCH   5  14
TORSDOF 2
ENDMDL
MODEL 7
REMARK VINA RESULT:      -5.4     11.447     12.253
REMARK  Name = min_compound91.pdb
REMARK  2 active torsions:
REMARK  status: ('A' for Active; 'I' for Inactive)
REMARK    1  A    between atoms: _6  and  _8
REMARK    2  A    between atoms: _7  and  _14
REMARK                            x       y       z     vdW  Elec       q    Type
REMARK                         _______ _______ _______ _____ _____    ______ ____
ROOT
ATOM      1  H   UNL     1     -19.003  -0.495  -7.147  0.00  0.00    +0.211 HD
ATOM      2  N   UNL     1     -18.028  -0.255  -7.255  0.00  0.00    -0.182 N 
ATOM      3  C   UNL     1     -17.210  -0.184  -6.157  0.00  0.00    +0.285 A 
ATOM      4  C   UNL     1     -16.110   0.735  -6.471  0.00  0.00    +0.082 A 
ATOM      5  C   UNL     1     -16.492   1.261  -7.643  0.00  0.00    +0.220 A 
ATOM      6  O   UNL     1     -17.402  -0.769  -5.107  0.00  0.00    -0.265 OA
ATOM      7  O   UNL     1     -17.671   0.754  -8.173  0.00  0.00    -0.362 OA
ENDROOT
BRANCH   4   8
ATOM      8  C   UNL     1     -14.909   1.066  -5.615  0.00  0.00    +0.029 C 
ATOM      9  C   UNL     1     -14.055  -0.101  -5.216  0.00  0.00    +0.008 C 
ATOM     10  C   UNL     1     -14.131   0.104  -3.615  0.00  0.00    +0.001 C 
ATOM     11  C   UNL     1     -13.110   1.272  -3.223  0.00  0.00    +0.000 C 
ATOM     12  C   UNL     1     -13.964   2.439  -3.621  0.00  0.00    +0.001 C 
ATOM     13  C   UNL     1     -15.146   2.195  -4.578  0.00  0.00    +0.008 C 
ENDBRANCH   4   8
BRANCH   5  14
ATOM     14  N   UNL     1     -15.857   2.214  -8.392  0.00  0.00    -0.327 N 
ATOM     15  H   UNL     1     -14.844   2.178  -8.340  0.00  0.00    +0.145 HD
ATOM     16  H   UNL     1     -16.203   2.227  -9.348  0.00  0.00    +0.145 HD
ENDBRANCH   5  14
TORSDOF 2
ENDMDL
MODEL 8
REMARK VINA RESULT:      -5.4     14.290     15.229
REMARK  Name = min_compound91.pdb
REMARK  2 active torsions:
REMARK  status: ('A' for Active; 'I' for Inactive)
REMARK    1  A    between atoms: _6  and  _8
REMARK    2  A    between atoms: _7  and  _14
REMARK                            x       y       z     vdW  Elec       q    Type
REMARK                         _______ _______ _______ _____ _____    ______ ____
ROOT
ATOM      1  H   UNL     1     -17.521  -2.269  -0.421  0.00  0.00    +0.211 HD
ATOM      2  N   UNL     1     -16.621  -1.888  -0.673  0.00  0.00    -0.182 N 
ATOM      3  C   UNL     1     -16.460  -1.230  -1.865  0.00  0.00    +0.285 A 
ATOM      4  C   UNL     1     -15.050  -1.340  -2.256  0.00  0.00    +0.082 A 
ATOM      5  C   UNL     1     -14.564  -2.211  -1.361  0.00  0.00    +0.220 A 
ATOM      6  O   UNL     1     -17.354  -0.684  -2.485  0.00  0.00    -0.265 OA
ATOM      7  O   UNL     1     -15.459  -2.636  -0.389  0.00  0.00    -0.362 OA
ENDROOT
BRANCH   4   8
ATOM      8  C   UNL     1     -14.367  -0.700  -3.444  0.00  0.00    +0.029 C 
ATOM      9  C   UNL     1     -14.117   0.775  -3.331  0.00  0.00    +0.008 C 
ATOM     10  C   UNL     1     -14.900   1.236  -4.666  0.00  0.00    +0.001 C 
ATOM     11  C   UNL     1     -13.947   0.943  -5.918  0.00  0.00    +0.000 C 
ATOM     12  C   UNL     1     -14.197  -0.532  -6.030  0.00  0.00    +0.001 C 
ATOM     13  C   UNL     1     -14.794  -1.273  -4.820  0.00  0.00    +0.008 C 
ENDBRANCH   4   8
BRANCH   5  14
ATOM     14  N   UNL     1     -13.295  -2.713  -1.270  0.00  0.00    -0.327 N 
ATOM     15  H   UNL     1     -12.962  -2.838  -0.319  0.00  0.00    +0.145 HD
ATOM     16  H   UNL     1     -13.183  -3.549  -1.839  0.00  0.00    +0.145 HD
ENDBRANCH   5  14
TORSDOF 2
ENDMDL
MODEL 9
REMARK VINA RESULT:      -5.1      2.660      4.606
REMARK  Name = min_compound91.pdb
REMARK  2 active torsions:
REMARK  status: ('A' for Active; 'I' for Inactive)
REMARK    1  A    between atoms: _6  and  _8
REMARK    2  A    between atoms: _7  and  _14
REMARK                            x       y       z     vdW  Elec       q    Type
REMARK                         _______ _______ _______ _____ _____    ______ ____
ROOT
ATOM      1  H   UNL     1      -8.698   0.461 -17.219  0.00  0.00    +0.211 HD
ATOM      2  N   UNL     1      -9.697   0.453 -17.363  0.00  0.00    -0.182 N 
ATOM      3  C   UNL     1     -10.420   1.612 -17.245  0.00  0.00    +0.285 A 
ATOM      4  C   UNL     1     -11.796   1.253 -16.885  0.00  0.00    +0.082 A 
ATOM      5  C   UNL     1     -11.701  -0.060 -16.636  0.00  0.00    +0.220 A 
ATOM      6  O   UNL     1      -9.966   2.733 -17.391  0.00  0.00    -0.265 OA
ATOM      7  O   UNL     1     -10.452  -0.624 -16.853  0.00  0.00    -0.362 OA
ENDROOT
BRANCH   4   8
ATOM      8  C   UNL     1     -12.983   2.177 -16.735  0.00  0.00    +0.029 C 
ATOM      9  C   UNL     1     -13.553   2.714 -18.014  0.00  0.00    +0.008 C 
ATOM     10  C   UNL     1     -13.420   4.287 -17.676  0.00  0.00    +0.001 C 
ATOM     11  C   UNL     1     -14.632   4.683 -16.708  0.00  0.00    +0.000 C 
ATOM     12  C   UNL     1     -14.061   4.147 -15.429  0.00  0.00    +0.001 C 
ATOM     13  C   UNL     1     -12.917   3.120 -15.504  0.00  0.00    +0.008 C 
ENDBRANCH   4   8
BRANCH   5  14
ATOM     14  N   UNL     1     -12.683  -0.917 -16.219  0.00  0.00    -0.327 N 
ATOM     15  H   UNL     1     -13.576  -0.787 -16.685  0.00  0.00    +0.145 HD
ATOM     16  H   UNL     1     -12.367  -1.883 -16.236  0.00  0.00    +0.145 HD
ENDBRANCH   5  14
TORSDOF 2
ENDMDL
