MODEL 1
REMARK VINA RESULT:      -7.5      0.000      0.000
REMARK  Name = min_compound935.pdb
REMARK  4 active torsions:
REMARK  status: ('A' for Active; 'I' for Inactive)
REMARK    1  A    between atoms: _1  and  _7
REMARK    2  A    between atoms: _5  and  _19
REMARK    3  A    between atoms: _8  and  _18
REMARK    4  A    between atoms: _9  and  _20
REMARK                            x       y       z     vdW  Elec       q    Type
REMARK                         _______ _______ _______ _____ _____    ______ ____
ROOT
ATOM      1  C   UNL     1     -12.376   2.929 -17.656  0.00  0.00    +0.042 A 
ATOM      2  C   UNL     1     -11.752   1.796 -17.071  0.00  0.00    -0.006 A 
ATOM      3  C   UNL     1     -12.087   0.455 -17.377  0.00  0.00    +0.009 A 
ATOM      4  C   UNL     1     -11.435  -0.619 -16.766  0.00  0.00    +0.001 A 
ATOM      5  C   UNL     1     -10.436  -0.382 -15.831  0.00  0.00    +0.001 A 
ATOM      6  C   UNL     1     -10.093   0.928 -15.500  0.00  0.00    +0.008 A 
ATOM      7  C   UNL     1     -10.739   2.020 -16.103  0.00  0.00    -0.017 A 
ATOM      8  C   UNL     1     -10.388   3.331 -15.747  0.00  0.00    +0.012 A 
ATOM      9  C   UNL     1     -11.012   4.431 -16.336  0.00  0.00    +0.046 A 
ATOM     10  C   UNL     1     -11.999   4.230 -17.294  0.00  0.00    +0.126 A 
ENDROOT
BRANCH   1  12
ATOM     11  N   UNL     1     -13.261   3.184 -19.895  0.00  0.00    -0.251 NA
ATOM     12  C   UNL     1     -13.413   2.740 -18.689  0.00  0.00    +0.123 C 
BRANCH  11  13
ATOM     13  C   UNL     1     -14.304   2.930 -20.804  0.00  0.00    +0.105 A 
ATOM     14  C   UNL     1     -15.409   3.788 -20.774  0.00  0.00    +0.031 A 
ATOM     15  C   UNL     1     -16.500   3.587 -21.622  0.00  0.00    +0.002 A 
ATOM     16  C   UNL     1     -16.502   2.512 -22.508  0.00  0.00    +0.004 A 
ATOM     17  C   UNL     1     -15.417   1.635 -22.546  0.00  0.00    +0.047 A 
ATOM     18  C   UNL     1     -14.328   1.842 -21.694  0.00  0.00    +0.142 A 
BRANCH  18  19
ATOM     19  O   UNL     1     -13.267   0.973 -21.735  0.00  0.00    -0.505 OA
ATOM     20  H   UNL     1     -13.579   0.133 -22.109  0.00  0.00    +0.292 HD
ENDBRANCH  18  19
ENDBRANCH  11  13
ENDBRANCH   1  12
BRANCH  10  21
ATOM     21  O   UNL     1     -12.551   5.314 -17.915  0.00  0.00    -0.506 OA
ATOM     22  H   UNL     1     -12.789   5.072 -18.824  0.00  0.00    +0.292 HD
ENDBRANCH  10  21
TORSDOF 4
ENDMDL
MODEL 2
REMARK VINA RESULT:      -7.3      3.803      6.319
REMARK  Name = min_compound935.pdb
REMARK  4 active torsions:
REMARK  status: ('A' for Active; 'I' for Inactive)
REMARK    1  A    between atoms: _1  and  _7
REMARK    2  A    between atoms: _5  and  _19
REMARK    3  A    between atoms: _8  and  _18
REMARK    4  A    between atoms: _9  and  _20
REMARK                            x       y       z     vdW  Elec       q    Type
REMARK                         _______ _______ _______ _____ _____    ______ ____
ROOT
ATOM      1  C   UNL     1     -14.480   3.571 -16.292  0.00  0.00    +0.042 A 
ATOM      2  C   UNL     1     -14.355   4.911 -16.744  0.00  0.00    -0.006 A 
ATOM      3  C   UNL     1     -13.134   5.507 -17.143  0.00  0.00    +0.009 A 
ATOM      4  C   UNL     1     -13.076   6.833 -17.578  0.00  0.00    +0.001 A 
ATOM      5  C   UNL     1     -14.233   7.599 -17.623  0.00  0.00    +0.001 A 
ATOM      6  C   UNL     1     -15.449   7.043 -17.225  0.00  0.00    +0.008 A 
ATOM      7  C   UNL     1     -15.525   5.712 -16.783  0.00  0.00    -0.017 A 
ATOM      8  C   UNL     1     -16.756   5.174 -16.375  0.00  0.00    +0.012 A 
ATOM      9  C   UNL     1     -16.857   3.854 -15.936  0.00  0.00    +0.046 A 
ATOM     10  C   UNL     1     -15.722   3.053 -15.902  0.00  0.00    +0.126 A 
ENDROOT
BRANCH   1  12
ATOM     11  N   UNL     1     -13.151   1.716 -17.099  0.00  0.00    -0.251 NA
ATOM     12  C   UNL     1     -13.292   2.695 -16.266  0.00  0.00    +0.123 C 
BRANCH  11  13
ATOM     13  C   UNL     1     -11.970   0.957 -16.998  0.00  0.00    +0.105 A 
ATOM     14  C   UNL     1     -10.776   1.565 -17.401  0.00  0.00    +0.031 A 
ATOM     15  C   UNL     1      -9.565   0.871 -17.362  0.00  0.00    +0.002 A 
ATOM     16  C   UNL     1      -9.537  -0.452 -16.924  0.00  0.00    +0.004 A 
ATOM     17  C   UNL     1     -10.718  -1.082 -16.529  0.00  0.00    +0.047 A 
ATOM     18  C   UNL     1     -11.927  -0.381 -16.571  0.00  0.00    +0.142 A 
BRANCH  18  19
ATOM     19  O   UNL     1     -13.083  -1.011 -16.186  0.00  0.00    -0.505 OA
ATOM     20  H   UNL     1     -13.018  -1.945 -16.441  0.00  0.00    +0.292 HD
ENDBRANCH  18  19
ENDBRANCH  11  13
ENDBRANCH   1  12
BRANCH  10  21
ATOM     21  O   UNL     1     -15.847   1.741 -15.540  0.00  0.00    -0.506 OA
ATOM     22  H   UNL     1     -15.215   1.209 -16.049  0.00  0.00    +0.292 HD
ENDBRANCH  10  21
TORSDOF 4
ENDMDL
MODEL 3
REMARK VINA RESULT:      -7.3     15.572     17.529
REMARK  Name = min_compound935.pdb
REMARK  4 active torsions:
REMARK  status: ('A' for Active; 'I' for Inactive)
REMARK    1  A    between atoms: _1  and  _7
REMARK    2  A    between atoms: _5  and  _19
REMARK    3  A    between atoms: _8  and  _18
REMARK    4  A    between atoms: _9  and  _20
REMARK                            x       y       z     vdW  Elec       q    Type
REMARK                         _______ _______ _______ _____ _____    ______ ____
ROOT
ATOM      1  C   UNL     1     -15.938  -1.046  -3.548  0.00  0.00    +0.042 A 
ATOM      2  C   UNL     1     -15.208   0.171  -3.572  0.00  0.00    -0.006 A 
ATOM      3  C   UNL     1     -13.834   0.284  -3.246  0.00  0.00    +0.009 A 
ATOM      4  C   UNL     1     -13.171   1.512  -3.289  0.00  0.00    +0.001 A 
ATOM      5  C   UNL     1     -13.861   2.660  -3.654  0.00  0.00    +0.001 A 
ATOM      6  C   UNL     1     -15.218   2.583  -3.969  0.00  0.00    +0.008 A 
ATOM      7  C   UNL     1     -15.901   1.356  -3.929  0.00  0.00    -0.017 A 
ATOM      8  C   UNL     1     -17.269   1.301  -4.239  0.00  0.00    +0.012 A 
ATOM      9  C   UNL     1     -17.967   0.094  -4.210  0.00  0.00    +0.046 A 
ATOM     10  C   UNL     1     -17.301  -1.078  -3.873  0.00  0.00    +0.126 A 
ENDROOT
BRANCH   1  12
ATOM     11  N   UNL     1     -15.461  -2.922  -2.094  0.00  0.00    -0.251 NA
ATOM     12  C   UNL     1     -15.247  -2.306  -3.211  0.00  0.00    +0.123 C 
BRANCH  11  13
ATOM     13  C   UNL     1     -14.762  -4.125  -1.885  0.00  0.00    +0.105 A 
ATOM     14  C   UNL     1     -15.415  -5.317  -2.219  0.00  0.00    +0.031 A 
ATOM     15  C   UNL     1     -14.803  -6.555  -2.013  0.00  0.00    +0.002 A 
ATOM     16  C   UNL     1     -13.527  -6.615  -1.457  0.00  0.00    +0.004 A 
ATOM     17  C   UNL     1     -12.862  -5.440  -1.104  0.00  0.00    +0.047 A 
ATOM     18  C   UNL     1     -13.481  -4.203  -1.312  0.00  0.00    +0.142 A 
BRANCH  18  19
ATOM     19  O   UNL     1     -12.821  -3.054  -0.957  0.00  0.00    -0.505 OA
ATOM     20  H   UNL     1     -12.894  -2.949   0.005  0.00  0.00    +0.292 HD
ENDBRANCH  18  19
ENDBRANCH  11  13
ENDBRANCH   1  12
BRANCH  10  21
ATOM     21  O   UNL     1     -17.979  -2.264  -3.920  0.00  0.00    -0.506 OA
ATOM     22  H   UNL     1     -18.731  -2.176  -4.526  0.00  0.00    +0.292 HD
ENDBRANCH  10  21
TORSDOF 4
ENDMDL
MODEL 4
REMARK VINA RESULT:      -7.2      3.414      6.060
REMARK  Name = min_compound935.pdb
REMARK  4 active torsions:
REMARK  status: ('A' for Active; 'I' for Inactive)
REMARK    1  A    between atoms: _1  and  _7
REMARK    2  A    between atoms: _5  and  _19
REMARK    3  A    between atoms: _8  and  _18
REMARK    4  A    between atoms: _9  and  _20
REMARK                            x       y       z     vdW  Elec       q    Type
REMARK                         _______ _______ _______ _____ _____    ______ ____
ROOT
ATOM      1  C   UNL     1     -14.206   4.366 -16.283  0.00  0.00    +0.042 A 
ATOM      2  C   UNL     1     -14.787   4.812 -15.067  0.00  0.00    -0.006 A 
ATOM      3  C   UNL     1     -14.695   4.116 -13.837  0.00  0.00    +0.009 A 
ATOM      4  C   UNL     1     -15.289   4.608 -12.673  0.00  0.00    +0.001 A 
ATOM      5  C   UNL     1     -15.994   5.803 -12.706  0.00  0.00    +0.001 A 
ATOM      6  C   UNL     1     -16.113   6.505 -13.905  0.00  0.00    +0.008 A 
ATOM      7  C   UNL     1     -15.523   6.025 -15.086  0.00  0.00    -0.017 A 
ATOM      8  C   UNL     1     -15.664   6.740 -16.285  0.00  0.00    +0.012 A 
ATOM      9  C   UNL     1     -15.083   6.285 -17.470  0.00  0.00    +0.046 A 
ATOM     10  C   UNL     1     -14.350   5.105 -17.466  0.00  0.00    +0.126 A 
ENDROOT
BRANCH   1  12
ATOM     11  N   UNL     1     -12.202   3.099 -16.768  0.00  0.00    -0.251 NA
ATOM     12  C   UNL     1     -13.407   3.126 -16.299  0.00  0.00    +0.123 C 
BRANCH  11  13
ATOM     13  C   UNL     1     -11.525   1.867 -16.716  0.00  0.00    +0.105 A 
ATOM     14  C   UNL     1     -10.743   1.608 -15.585  0.00  0.00    +0.031 A 
ATOM     15  C   UNL     1     -10.014   0.422 -15.470  0.00  0.00    +0.002 A 
ATOM     16  C   UNL     1     -10.052  -0.519 -16.497  0.00  0.00    +0.004 A 
ATOM     17  C   UNL     1     -10.814  -0.275 -17.640  0.00  0.00    +0.047 A 
ATOM     18  C   UNL     1     -11.541   0.914 -17.749  0.00  0.00    +0.142 A 
BRANCH  18  19
ATOM     19  O   UNL     1     -12.284   1.146 -18.879  0.00  0.00    -0.505 OA
ATOM     20  H   UNL     1     -13.223   1.102 -18.638  0.00  0.00    +0.292 HD
ENDBRANCH  18  19
ENDBRANCH  11  13
ENDBRANCH   1  12
BRANCH  10  21
ATOM     21  O   UNL     1     -13.726   4.708 -18.615  0.00  0.00    -0.506 OA
ATOM     22  H   UNL     1     -12.855   5.133 -18.667  0.00  0.00    +0.292 HD
ENDBRANCH  10  21
TORSDOF 4
ENDMDL
MODEL 5
REMARK VINA RESULT:      -7.2      3.936      5.141
REMARK  Name = min_compound935.pdb
REMARK  4 active torsions:
REMARK  status: ('A' for Active; 'I' for Inactive)
REMARK    1  A    between atoms: _1  and  _7
REMARK    2  A    between atoms: _5  and  _19
REMARK    3  A    between atoms: _8  and  _18
REMARK    4  A    between atoms: _9  and  _20
REMARK                            x       y       z     vdW  Elec       q    Type
REMARK                         _______ _______ _______ _____ _____    ______ ____
ROOT
ATOM      1  C   UNL     1     -12.553   2.948 -16.430  0.00  0.00    +0.042 A 
ATOM      2  C   UNL     1     -11.819   1.749 -16.630  0.00  0.00    -0.006 A 
ATOM      3  C   UNL     1     -12.309   0.455 -16.330  0.00  0.00    +0.009 A 
ATOM      4  C   UNL     1     -11.537  -0.688 -16.550  0.00  0.00    +0.001 A 
ATOM      5  C   UNL     1     -10.255  -0.570 -17.069  0.00  0.00    +0.001 A 
ATOM      6  C   UNL     1      -9.740   0.693 -17.362  0.00  0.00    +0.008 A 
ATOM      7  C   UNL     1     -10.502   1.853 -17.146  0.00  0.00    -0.017 A 
ATOM      8  C   UNL     1      -9.961   3.115 -17.437  0.00  0.00    +0.012 A 
ATOM      9  C   UNL     1     -10.700   4.281 -17.235  0.00  0.00    +0.046 A 
ATOM     10  C   UNL     1     -11.995   4.196 -16.740  0.00  0.00    +0.126 A 
ENDROOT
BRANCH   1  12
ATOM     11  N   UNL     1     -14.313   3.550 -14.881  0.00  0.00    -0.251 NA
ATOM     12  C   UNL     1     -13.937   2.881 -15.923  0.00  0.00    +0.123 C 
BRANCH  11  13
ATOM     13  C   UNL     1     -15.661   3.427 -14.497  0.00  0.00    +0.105 A 
ATOM     14  C   UNL     1     -16.561   2.935 -15.449  0.00  0.00    +0.031 A 
ATOM     15  C   UNL     1     -17.921   2.812 -15.158  0.00  0.00    +0.002 A 
ATOM     16  C   UNL     1     -18.400   3.191 -13.906  0.00  0.00    +0.004 A 
ATOM     17  C   UNL     1     -17.523   3.697 -12.945  0.00  0.00    +0.047 A 
ATOM     18  C   UNL     1     -16.162   3.818 -13.244  0.00  0.00    +0.142 A 
BRANCH  18  19
ATOM     19  O   UNL     1     -15.308   4.321 -12.295  0.00  0.00    -0.505 OA
ATOM     20  H   UNL     1     -14.399   4.127 -12.573  0.00  0.00    +0.292 HD
ENDBRANCH  18  19
ENDBRANCH  11  13
ENDBRANCH   1  12
BRANCH  10  21
ATOM     21  O   UNL     1     -12.734   5.339 -16.615  0.00  0.00    -0.506 OA
ATOM     22  H   UNL     1     -12.530   5.932 -17.355  0.00  0.00    +0.292 HD
ENDBRANCH  10  21
TORSDOF 4
ENDMDL
MODEL 6
REMARK VINA RESULT:      -6.7     15.203     17.679
REMARK  Name = min_compound935.pdb
REMARK  4 active torsions:
REMARK  status: ('A' for Active; 'I' for Inactive)
REMARK    1  A    between atoms: _1  and  _7
REMARK    2  A    between atoms: _5  and  _19
REMARK    3  A    between atoms: _8  and  _18
REMARK    4  A    between atoms: _9  and  _20
REMARK                            x       y       z     vdW  Elec       q    Type
REMARK                         _______ _______ _______ _____ _____    ______ ____
ROOT
ATOM      1  C   UNL     1     -15.556  -4.097  -1.973  0.00  0.00    +0.042 A 
ATOM      2  C   UNL     1     -14.740  -4.905  -1.137  0.00  0.00    -0.006 A 
ATOM      3  C   UNL     1     -13.412  -4.582  -0.768  0.00  0.00    +0.009 A 
ATOM      4  C   UNL     1     -12.659  -5.419   0.059  0.00  0.00    +0.001 A 
ATOM      5  C   UNL     1     -13.210  -6.601   0.534  0.00  0.00    +0.001 A 
ATOM      6  C   UNL     1     -14.511  -6.953   0.177  0.00  0.00    +0.008 A 
ATOM      7  C   UNL     1     -15.282  -6.123  -0.654  0.00  0.00    -0.017 A 
ATOM      8  C   UNL     1     -16.586  -6.500  -1.011  0.00  0.00    +0.012 A 
ATOM      9  C   UNL     1     -17.372  -5.691  -1.832  0.00  0.00    +0.046 A 
ATOM     10  C   UNL     1     -16.860  -4.489  -2.305  0.00  0.00    +0.126 A 
ENDROOT
BRANCH   1  12
ATOM     11  N   UNL     1     -15.130  -2.475  -3.718  0.00  0.00    -0.251 NA
ATOM     12  C   UNL     1     -15.041  -2.808  -2.471  0.00  0.00    +0.123 C 
BRANCH  11  13
ATOM     13  C   UNL     1     -14.623  -1.213  -4.079  0.00  0.00    +0.105 A 
ATOM     14  C   UNL     1     -14.370  -0.300  -3.049  0.00  0.00    +0.031 A 
ATOM     15  C   UNL     1     -13.896   0.984  -3.326  0.00  0.00    +0.002 A 
ATOM     16  C   UNL     1     -13.677   1.374  -4.646  0.00  0.00    +0.004 A 
ATOM     17  C   UNL     1     -13.936   0.484  -5.690  0.00  0.00    +0.047 A 
ATOM     18  C   UNL     1     -14.411  -0.800  -5.406  0.00  0.00    +0.142 A 
BRANCH  18  19
ATOM     19  O   UNL     1     -14.667  -1.665  -6.439  0.00  0.00    -0.505 OA
ATOM     20  H   UNL     1     -15.431  -2.212  -6.193  0.00  0.00    +0.292 HD
ENDBRANCH  18  19
ENDBRANCH  11  13
ENDBRANCH   1  12
BRANCH  10  21
ATOM     21  O   UNL     1     -17.665  -3.671  -3.047  0.00  0.00    -0.506 OA
ATOM     22  H   UNL     1     -18.588  -3.803  -2.777  0.00  0.00    +0.292 HD
ENDBRANCH  10  21
TORSDOF 4
ENDMDL
MODEL 7
REMARK VINA RESULT:      -6.5      4.018      6.874
REMARK  Name = min_compound935.pdb
REMARK  4 active torsions:
REMARK  status: ('A' for Active; 'I' for Inactive)
REMARK    1  A    between atoms: _1  and  _7
REMARK    2  A    between atoms: _5  and  _19
REMARK    3  A    between atoms: _8  and  _18
REMARK    4  A    between atoms: _9  and  _20
REMARK                            x       y       z     vdW  Elec       q    Type
REMARK                         _______ _______ _______ _____ _____    ______ ____
ROOT
ATOM      1  C   UNL     1     -14.893   4.931 -15.533  0.00  0.00    +0.042 A 
ATOM      2  C   UNL     1     -14.987   6.203 -16.156  0.00  0.00    -0.006 A 
ATOM      3  C   UNL     1     -14.188   6.616 -17.250  0.00  0.00    +0.009 A 
ATOM      4  C   UNL     1     -14.328   7.883 -17.821  0.00  0.00    +0.001 A 
ATOM      5  C   UNL     1     -15.266   8.772 -17.313  0.00  0.00    +0.001 A 
ATOM      6  C   UNL     1     -16.058   8.399 -16.228  0.00  0.00    +0.008 A 
ATOM      7  C   UNL     1     -15.930   7.129 -15.641  0.00  0.00    -0.017 A 
ATOM      8  C   UNL     1     -16.729   6.777 -14.542  0.00  0.00    +0.012 A 
ATOM      9  C   UNL     1     -16.622   5.521 -13.945  0.00  0.00    +0.046 A 
ATOM     10  C   UNL     1     -15.711   4.598 -14.444  0.00  0.00    +0.126 A 
ENDROOT
BRANCH   1  12
ATOM     11  N   UNL     1     -13.111   3.311 -15.287  0.00  0.00    -0.251 NA
ATOM     12  C   UNL     1     -13.947   3.929 -16.058  0.00  0.00    +0.123 C 
BRANCH  11  13
ATOM     13  C   UNL     1     -12.268   2.361 -15.890  0.00  0.00    +0.105 A 
ATOM     14  C   UNL     1     -12.872   1.242 -16.474  0.00  0.00    +0.031 A 
ATOM     15  C   UNL     1     -12.104   0.236 -17.066  0.00  0.00    +0.002 A 
ATOM     16  C   UNL     1     -10.714   0.337 -17.072  0.00  0.00    +0.004 A 
ATOM     17  C   UNL     1     -10.090   1.438 -16.484  0.00  0.00    +0.047 A 
ATOM     18  C   UNL     1     -10.865   2.440 -15.893  0.00  0.00    +0.142 A 
BRANCH  18  19
ATOM     19  O   UNL     1     -10.242   3.517 -15.313  0.00  0.00    -0.505 OA
ATOM     20  H   UNL     1      -9.466   3.742 -15.850  0.00  0.00    +0.292 HD
ENDBRANCH  18  19
ENDBRANCH  11  13
ENDBRANCH   1  12
BRANCH  10  21
ATOM     21  O   UNL     1     -15.667   3.347 -13.897  0.00  0.00    -0.506 OA
ATOM     22  H   UNL     1     -14.819   3.229 -13.442  0.00  0.00    +0.292 HD
ENDBRANCH  10  21
TORSDOF 4
ENDMDL
MODEL 8
REMARK VINA RESULT:      -6.5     12.617     14.579
REMARK  Name = min_compound935.pdb
REMARK  4 active torsions:
REMARK  status: ('A' for Active; 'I' for Inactive)
REMARK    1  A    between atoms: _1  and  _7
REMARK    2  A    between atoms: _5  and  _19
REMARK    3  A    between atoms: _8  and  _18
REMARK    4  A    between atoms: _9  and  _20
REMARK                            x       y       z     vdW  Elec       q    Type
REMARK                         _______ _______ _______ _____ _____    ______ ____
ROOT
ATOM      1  C   UNL     1     -16.577   2.532  -6.007  0.00  0.00    +0.042 A 
ATOM      2  C   UNL     1     -15.555   1.854  -5.292  0.00  0.00    -0.006 A 
ATOM      3  C   UNL     1     -15.023   2.291  -4.055  0.00  0.00    +0.009 A 
ATOM      4  C   UNL     1     -14.016   1.578  -3.399  0.00  0.00    +0.001 A 
ATOM      5  C   UNL     1     -13.513   0.413  -3.962  0.00  0.00    +0.001 A 
ATOM      6  C   UNL     1     -14.009  -0.036  -5.185  0.00  0.00    +0.008 A 
ATOM      7  C   UNL     1     -15.020   0.669  -5.859  0.00  0.00    -0.017 A 
ATOM      8  C   UNL     1     -15.497   0.206  -7.095  0.00  0.00    +0.012 A 
ATOM      9  C   UNL     1     -16.503   0.888  -7.781  0.00  0.00    +0.046 A 
ATOM     10  C   UNL     1     -17.046   2.043  -7.234  0.00  0.00    +0.126 A 
ENDROOT
BRANCH   1  12
ATOM     11  N   UNL     1     -16.886   4.930  -5.881  0.00  0.00    -0.251 NA
ATOM     12  C   UNL     1     -17.181   3.751  -5.437  0.00  0.00    +0.123 C 
BRANCH  11  13
ATOM     13  C   UNL     1     -17.536   6.021  -5.277  0.00  0.00    +0.105 A 
ATOM     14  C   UNL     1     -18.761   6.425  -5.822  0.00  0.00    +0.031 A 
ATOM     15  C   UNL     1     -19.454   7.519  -5.300  0.00  0.00    +0.002 A 
ATOM     16  C   UNL     1     -18.923   8.231  -4.227  0.00  0.00    +0.004 A 
ATOM     17  C   UNL     1     -17.698   7.854  -3.676  0.00  0.00    +0.047 A 
ATOM     18  C   UNL     1     -17.007   6.758  -4.203  0.00  0.00    +0.142 A 
BRANCH  18  19
ATOM     19  O   UNL     1     -15.801   6.398  -3.658  0.00  0.00    -0.505 OA
ATOM     20  H   UNL     1     -15.528   7.096  -3.041  0.00  0.00    +0.292 HD
ENDBRANCH  18  19
ENDBRANCH  11  13
ENDBRANCH   1  12
BRANCH  10  21
ATOM     21  O   UNL     1     -18.081   2.661  -7.880  0.00  0.00    -0.506 OA
ATOM     22  H   UNL     1     -17.824   2.833  -8.800  0.00  0.00    +0.292 HD
ENDBRANCH  10  21
TORSDOF 4
ENDMDL
MODEL 9
REMARK VINA RESULT:      -6.5     14.929     15.708
REMARK  Name = min_compound935.pdb
REMARK  4 active torsions:
REMARK  status: ('A' for Active; 'I' for Inactive)
REMARK    1  A    between atoms: _1  and  _7
REMARK    2  A    between atoms: _5  and  _19
REMARK    3  A    between atoms: _8  and  _18
REMARK    4  A    between atoms: _9  and  _20
REMARK                            x       y       z     vdW  Elec       q    Type
REMARK                         _______ _______ _______ _____ _____    ______ ____
ROOT
ATOM      1  C   UNL     1     -15.445   1.688  -3.695  0.00  0.00    +0.042 A 
ATOM      2  C   UNL     1     -16.010   0.418  -3.409  0.00  0.00    -0.006 A 
ATOM      3  C   UNL     1     -17.393   0.123  -3.496  0.00  0.00    +0.009 A 
ATOM      4  C   UNL     1     -17.889  -1.149  -3.200  0.00  0.00    +0.001 A 
ATOM      5  C   UNL     1     -17.020  -2.158  -2.807  0.00  0.00    +0.001 A 
ATOM      6  C   UNL     1     -15.654  -1.894  -2.700  0.00  0.00    +0.008 A 
ATOM      7  C   UNL     1     -15.138  -0.621  -2.992  0.00  0.00    -0.017 A 
ATOM      8  C   UNL     1     -13.763  -0.372  -2.867  0.00  0.00    +0.012 A 
ATOM      9  C   UNL     1     -13.227   0.883  -3.155  0.00  0.00    +0.046 A 
ATOM     10  C   UNL     1     -14.066   1.908  -3.575  0.00  0.00    +0.126 A 
ENDROOT
BRANCH   1  12
ATOM     11  N   UNL     1     -16.144   4.004  -3.760  0.00  0.00    -0.251 NA
ATOM     12  C   UNL     1     -16.313   2.786  -4.161  0.00  0.00    +0.123 C 
BRANCH  11  13
ATOM     13  C   UNL     1     -17.018   4.975  -4.283  0.00  0.00    +0.105 A 
ATOM     14  C   UNL     1     -18.086   4.526  -5.068  0.00  0.00    +0.031 A 
ATOM     15  C   UNL     1     -18.980   5.427  -5.650  0.00  0.00    +0.002 A 
ATOM     16  C   UNL     1     -18.808   6.796  -5.461  0.00  0.00    +0.004 A 
ATOM     17  C   UNL     1     -17.742   7.267  -4.694  0.00  0.00    +0.047 A 
ATOM     18  C   UNL     1     -16.850   6.360  -4.114  0.00  0.00    +0.142 A 
BRANCH  18  19
ATOM     19  O   UNL     1     -15.802   6.833  -3.365  0.00  0.00    -0.505 OA
ATOM     20  H   UNL     1     -15.921   6.526  -2.452  0.00  0.00    +0.292 HD
ENDBRANCH  18  19
ENDBRANCH  11  13
ENDBRANCH   1  12
BRANCH  10  21
ATOM     21  O   UNL     1     -13.519   3.111  -3.924  0.00  0.00    -0.506 OA
ATOM     22  H   UNL     1     -13.696   3.756  -3.221  0.00  0.00    +0.292 HD
ENDBRANCH  10  21
TORSDOF 4
ENDMDL
