MODEL 1
REMARK VINA RESULT:      -7.8      0.000      0.000
REMARK  Name = min_compound993.pdb
REMARK  8 active torsions:
REMARK  status: ('A' for Active; 'I' for Inactive)
REMARK    1  A    between atoms: _3  and  _17
REMARK    2  A    between atoms: _4  and  _18
REMARK    3  A    between atoms: _9  and  _14
REMARK    4  A    between atoms: _11  and  _13
REMARK    5  A    between atoms: _14  and  _17
REMARK    6  A    between atoms: _18  and  _19
REMARK    7  A    between atoms: _18  and  _20
REMARK    8  A    between atoms: _18  and  _21
REMARK                            x       y       z     vdW  Elec       q    Type
REMARK                         _______ _______ _______ _____ _____    ______ ____
ROOT
ATOM      1  N   UNL     1     -14.715   2.568 -16.683  0.00  0.00    -0.216 N 
ATOM      2  H   UNL     1     -15.474   2.444 -17.354  0.00  0.00    +0.174 HD
ENDROOT
BRANCH   1   4
ATOM      3  C   UNL     1     -14.504   4.065 -14.667  0.00  0.00    +0.025 A 
ATOM      4  C   UNL     1     -15.163   3.103 -15.432  0.00  0.00    +0.048 A 
ATOM      5  C   UNL     1     -16.262   2.446 -14.864  0.00  0.00    +0.025 A 
ATOM      6  C   UNL     1     -16.704   2.754 -13.576  0.00  0.00    +0.006 A 
ATOM      7  C   UNL     1     -16.057   3.737 -12.805  0.00  0.00    -0.042 A 
ATOM      8  C   UNL     1     -14.964   4.405 -13.384  0.00  0.00    +0.006 A 
BRANCH   7   9
ATOM      9  C   UNL     1     -16.466   3.956 -11.379  0.00  0.00    -0.013 C 
ATOM     10  C   UNL     1     -16.875   4.176  -9.952  0.00  0.00    +0.015 C 
ATOM     11  C   UNL     1     -17.780   3.287 -11.653  0.00  0.00    +0.015 C 
ATOM     12  C   UNL     1     -15.152   4.626 -11.105  0.00  0.00    +0.015 C 
ENDBRANCH   7   9
ENDBRANCH   1   4
BRANCH   1  13
ATOM     13  S   UNL     1     -13.349   3.056 -17.532  0.00  0.00    +0.072 S 
ATOM     14  O   UNL     1     -12.844   4.343 -17.119  0.00  0.00    -0.150 OA
ATOM     15  O   UNL     1     -13.639   2.761 -18.920  0.00  0.00    -0.150 OA
BRANCH  13  16
ATOM     16  C   UNL     1     -12.170   1.843 -16.970  0.00  0.00    +0.109 A 
ATOM     17  C   UNL     1     -11.309   2.141 -15.913  0.00  0.00    +0.030 A 
ATOM     18  C   UNL     1     -10.362   1.196 -15.511  0.00  0.00    +0.024 A 
ATOM     19  C   UNL     1     -10.293  -0.058 -16.127  0.00  0.00    +0.025 A 
ATOM     20  C   UNL     1     -11.127  -0.318 -17.221  0.00  0.00    +0.024 A 
ATOM     21  C   UNL     1     -12.081   0.618 -17.632  0.00  0.00    +0.030 A 
BRANCH  19  22
ATOM     22  N   UNL     1      -9.254  -0.941 -15.810  0.00  0.00    -0.358 N 
ATOM     23  H   UNL     1      -8.800  -1.349 -16.621  0.00  0.00    +0.142 HD
ATOM     24  H   UNL     1      -8.583  -0.564 -15.146  0.00  0.00    +0.142 HD
ENDBRANCH  19  22
ENDBRANCH  13  16
ENDBRANCH   1  13
TORSDOF 5
ENDMDL
MODEL 2
REMARK VINA RESULT:      -7.8      2.549      6.868
REMARK  Name = min_compound993.pdb
REMARK  8 active torsions:
REMARK  status: ('A' for Active; 'I' for Inactive)
REMARK    1  A    between atoms: _3  and  _17
REMARK    2  A    between atoms: _4  and  _18
REMARK    3  A    between atoms: _9  and  _14
REMARK    4  A    between atoms: _11  and  _13
REMARK    5  A    between atoms: _14  and  _17
REMARK    6  A    between atoms: _18  and  _19
REMARK    7  A    between atoms: _18  and  _20
REMARK    8  A    between atoms: _18  and  _21
REMARK                            x       y       z     vdW  Elec       q    Type
REMARK                         _______ _______ _______ _____ _____    ______ ____
ROOT
ATOM      1  N   UNL     1     -14.533   4.570 -15.671  0.00  0.00    -0.216 N 
ATOM      2  H   UNL     1     -14.460   5.477 -16.133  0.00  0.00    +0.174 HD
ENDROOT
BRANCH   1   4
ATOM      3  C   UNL     1     -13.785   2.784 -17.284  0.00  0.00    +0.025 A 
ATOM      4  C   UNL     1     -13.596   3.612 -16.178  0.00  0.00    +0.048 A 
ATOM      5  C   UNL     1     -12.485   3.378 -15.359  0.00  0.00    +0.025 A 
ATOM      6  C   UNL     1     -11.575   2.358 -15.646  0.00  0.00    +0.006 A 
ATOM      7  C   UNL     1     -11.748   1.530 -16.771  0.00  0.00    -0.042 A 
ATOM      8  C   UNL     1     -12.857   1.779 -17.599  0.00  0.00    +0.006 A 
BRANCH   7   9
ATOM      9  C   UNL     1     -10.835   0.360 -16.984  0.00  0.00    -0.013 C 
ATOM     10  C   UNL     1      -9.921  -0.811 -17.197  0.00  0.00    +0.015 C 
ATOM     11  C   UNL     1      -9.761   1.287 -17.472  0.00  0.00    +0.015 C 
ATOM     12  C   UNL     1     -11.908  -0.567 -16.496  0.00  0.00    +0.015 C 
ENDBRANCH   7   9
ENDBRANCH   1   4
BRANCH   1  13
ATOM     13  S   UNL     1     -16.159   4.284 -15.349  0.00  0.00    +0.072 S 
ATOM     14  O   UNL     1     -16.633   3.021 -15.860  0.00  0.00    -0.150 OA
ATOM     15  O   UNL     1     -16.831   5.531 -15.653  0.00  0.00    -0.150 OA
BRANCH  13  16
ATOM     16  C   UNL     1     -16.113   4.130 -13.574  0.00  0.00    +0.109 A 
ATOM     17  C   UNL     1     -15.112   4.770 -12.842  0.00  0.00    +0.030 A 
ATOM     18  C   UNL     1     -15.064   4.606 -11.454  0.00  0.00    +0.024 A 
ATOM     19  C   UNL     1     -16.028   3.842 -10.789  0.00  0.00    +0.025 A 
ATOM     20  C   UNL     1     -16.991   3.163 -11.545  0.00  0.00    +0.024 A 
ATOM     21  C   UNL     1     -17.052   3.321 -12.933  0.00  0.00    +0.030 A 
BRANCH  19  22
ATOM     22  N   UNL     1     -15.889   3.573  -9.422  0.00  0.00    -0.358 N 
ATOM     23  H   UNL     1     -14.988   3.842  -9.040  0.00  0.00    +0.142 HD
ATOM     24  H   UNL     1     -16.661   3.912  -8.856  0.00  0.00    +0.142 HD
ENDBRANCH  19  22
ENDBRANCH  13  16
ENDBRANCH   1  13
TORSDOF 5
ENDMDL
MODEL 3
REMARK VINA RESULT:      -7.7      2.593      7.065
REMARK  Name = min_compound993.pdb
REMARK  8 active torsions:
REMARK  status: ('A' for Active; 'I' for Inactive)
REMARK    1  A    between atoms: _3  and  _17
REMARK    2  A    between atoms: _4  and  _18
REMARK    3  A    between atoms: _9  and  _14
REMARK    4  A    between atoms: _11  and  _13
REMARK    5  A    between atoms: _14  and  _17
REMARK    6  A    between atoms: _18  and  _19
REMARK    7  A    between atoms: _18  and  _20
REMARK    8  A    between atoms: _18  and  _21
REMARK                            x       y       z     vdW  Elec       q    Type
REMARK                         _______ _______ _______ _____ _____    ______ ____
ROOT
ATOM      1  N   UNL     1     -14.266   4.259 -15.143  0.00  0.00    -0.216 N 
ATOM      2  H   UNL     1     -14.016   5.199 -15.453  0.00  0.00    +0.174 HD
ENDROOT
BRANCH   1   4
ATOM      3  C   UNL     1     -13.905   2.032 -16.264  0.00  0.00    +0.025 A 
ATOM      4  C   UNL     1     -13.453   3.243 -15.743  0.00  0.00    +0.048 A 
ATOM      5  C   UNL     1     -12.072   3.431 -15.606  0.00  0.00    +0.025 A 
ATOM      6  C   UNL     1     -11.165   2.443 -15.997  0.00  0.00    +0.006 A 
ATOM      7  C   UNL     1     -11.612   1.226 -16.543  0.00  0.00    -0.042 A 
ATOM      8  C   UNL     1     -12.998   1.048 -16.693  0.00  0.00    +0.006 A 
BRANCH   7   9
ATOM      9  C   UNL     1     -10.628   0.131 -16.831  0.00  0.00    -0.013 C 
ATOM     10  C   UNL     1      -9.643  -0.963 -17.120  0.00  0.00    +0.015 C 
ATOM     11  C   UNL     1     -11.556  -0.868 -16.206  0.00  0.00    +0.015 C 
ATOM     12  C   UNL     1      -9.700   1.131 -17.456  0.00  0.00    +0.015 C 
ENDBRANCH   7   9
ENDBRANCH   1   4
BRANCH   1  13
ATOM     13  S   UNL     1     -15.937   4.204 -14.958  0.00  0.00    +0.072 S 
ATOM     14  O   UNL     1     -16.543   3.040 -15.556  0.00  0.00    -0.150 OA
ATOM     15  O   UNL     1     -16.396   5.545 -15.259  0.00  0.00    -0.150 OA
BRANCH  13  16
ATOM     16  C   UNL     1     -16.057   3.990 -13.192  0.00  0.00    +0.109 A 
ATOM     17  C   UNL     1     -17.064   3.190 -12.651  0.00  0.00    +0.030 A 
ATOM     18  C   UNL     1     -17.172   3.065 -11.263  0.00  0.00    +0.024 A 
ATOM     19  C   UNL     1     -16.260   3.698 -10.414  0.00  0.00    +0.025 A 
ATOM     20  C   UNL     1     -15.290   4.540 -10.971  0.00  0.00    +0.024 A 
ATOM     21  C   UNL     1     -15.170   4.672 -12.358  0.00  0.00    +0.030 A 
BRANCH  19  22
ATOM     22  N   UNL     1     -16.460   3.678  -9.028  0.00  0.00    -0.358 N 
ATOM     23  H   UNL     1     -16.167   2.813  -8.584  0.00  0.00    +0.142 HD
ATOM     24  H   UNL     1     -16.097   4.496  -8.548  0.00  0.00    +0.142 HD
ENDBRANCH  19  22
ENDBRANCH  13  16
ENDBRANCH   1  13
TORSDOF 5
ENDMDL
MODEL 4
REMARK VINA RESULT:      -7.6      0.311      1.094
REMARK  Name = min_compound993.pdb
REMARK  8 active torsions:
REMARK  status: ('A' for Active; 'I' for Inactive)
REMARK    1  A    between atoms: _3  and  _17
REMARK    2  A    between atoms: _4  and  _18
REMARK    3  A    between atoms: _9  and  _14
REMARK    4  A    between atoms: _11  and  _13
REMARK    5  A    between atoms: _14  and  _17
REMARK    6  A    between atoms: _18  and  _19
REMARK    7  A    between atoms: _18  and  _20
REMARK    8  A    between atoms: _18  and  _21
REMARK                            x       y       z     vdW  Elec       q    Type
REMARK                         _______ _______ _______ _____ _____    ______ ____
ROOT
ATOM      1  N   UNL     1     -14.582   2.728 -16.941  0.00  0.00    -0.216 N 
ATOM      2  H   UNL     1     -15.308   2.933 -17.628  0.00  0.00    +0.174 HD
ENDROOT
BRANCH   1   4
ATOM      3  C   UNL     1     -16.141   2.244 -15.021  0.00  0.00    +0.025 A 
ATOM      4  C   UNL     1     -15.038   2.878 -15.591  0.00  0.00    +0.048 A 
ATOM      5  C   UNL     1     -14.414   3.900 -14.864  0.00  0.00    +0.025 A 
ATOM      6  C   UNL     1     -14.866   4.267 -13.595  0.00  0.00    +0.006 A 
ATOM      7  C   UNL     1     -15.966   3.618 -13.005  0.00  0.00    -0.042 A 
ATOM      8  C   UNL     1     -16.580   2.583 -13.730  0.00  0.00    +0.006 A 
BRANCH   7   9
ATOM      9  C   UNL     1     -16.515   4.117 -11.701  0.00  0.00    -0.013 C 
ATOM     10  C   UNL     1     -17.064   4.616 -10.397  0.00  0.00    +0.015 C 
ATOM     11  C   UNL     1     -17.835   3.477 -12.011  0.00  0.00    +0.015 C 
ATOM     12  C   UNL     1     -15.195   4.757 -11.390  0.00  0.00    +0.015 C 
ENDBRANCH   7   9
ENDBRANCH   1   4
BRANCH   1  13
ATOM     13  S   UNL     1     -13.118   3.283 -17.556  0.00  0.00    +0.072 S 
ATOM     14  O   UNL     1     -12.661   4.503 -16.938  0.00  0.00    -0.150 OA
ATOM     15  O   UNL     1     -13.237   3.153 -18.993  0.00  0.00    -0.150 OA
BRANCH  13  16
ATOM     16  C   UNL     1     -12.025   1.990 -16.998  0.00  0.00    +0.109 A 
ATOM     17  C   UNL     1     -11.189   2.205 -15.902  0.00  0.00    +0.030 A 
ATOM     18  C   UNL     1     -10.308   1.196 -15.501  0.00  0.00    +0.024 A 
ATOM     19  C   UNL     1     -10.282  -0.037 -16.161  0.00  0.00    +0.025 A 
ATOM     20  C   UNL     1     -11.087  -0.214 -17.291  0.00  0.00    +0.024 A 
ATOM     21  C   UNL     1     -11.976   0.785 -17.701  0.00  0.00    +0.030 A 
BRANCH  19  22
ATOM     22  N   UNL     1      -9.302  -0.984 -15.839  0.00  0.00    -0.358 N 
ATOM     23  H   UNL     1      -9.505  -1.917 -16.185  0.00  0.00    +0.142 HD
ATOM     24  H   UNL     1      -8.356  -0.690 -16.064  0.00  0.00    +0.142 HD
ENDBRANCH  19  22
ENDBRANCH  13  16
ENDBRANCH   1  13
TORSDOF 5
ENDMDL
MODEL 5
REMARK VINA RESULT:      -7.5      3.823      6.372
REMARK  Name = min_compound993.pdb
REMARK  8 active torsions:
REMARK  status: ('A' for Active; 'I' for Inactive)
REMARK    1  A    between atoms: _3  and  _17
REMARK    2  A    between atoms: _4  and  _18
REMARK    3  A    between atoms: _9  and  _14
REMARK    4  A    between atoms: _11  and  _13
REMARK    5  A    between atoms: _14  and  _17
REMARK    6  A    between atoms: _18  and  _19
REMARK    7  A    between atoms: _18  and  _20
REMARK    8  A    between atoms: _18  and  _21
REMARK                            x       y       z     vdW  Elec       q    Type
REMARK                         _______ _______ _______ _____ _____    ______ ____
ROOT
ATOM      1  N   UNL     1     -14.268   4.435 -15.454  0.00  0.00    -0.216 N 
ATOM      2  H   UNL     1     -13.831   4.925 -14.672  0.00  0.00    +0.174 HD
ENDROOT
BRANCH   1   4
ATOM      3  C   UNL     1     -13.900   2.220 -16.596  0.00  0.00    +0.025 A 
ATOM      4  C   UNL     1     -13.447   3.384 -15.978  0.00  0.00    +0.048 A 
ATOM      5  C   UNL     1     -12.087   3.477 -15.656  0.00  0.00    +0.025 A 
ATOM      6  C   UNL     1     -11.199   2.443 -15.960  0.00  0.00    +0.006 A 
ATOM      7  C   UNL     1     -11.644   1.273 -16.602  0.00  0.00    -0.042 A 
ATOM      8  C   UNL     1     -13.007   1.190 -16.938  0.00  0.00    +0.006 A 
BRANCH   7   9
ATOM      9  C   UNL     1     -10.700   0.124 -16.799  0.00  0.00    -0.013 C 
ATOM     10  C   UNL     1      -9.756  -1.025 -16.996  0.00  0.00    +0.015 C 
ATOM     11  C   UNL     1     -11.734  -0.819 -16.258  0.00  0.00    +0.015 C 
ATOM     12  C   UNL     1      -9.666   1.066 -17.340  0.00  0.00    +0.015 C 
ENDBRANCH   7   9
ENDBRANCH   1   4
BRANCH   1  13
ATOM     13  S   UNL     1     -15.120   5.566 -16.360  0.00  0.00    +0.072 S 
ATOM     14  O   UNL     1     -15.326   6.817 -15.671  0.00  0.00    -0.150 OA
ATOM     15  O   UNL     1     -16.219   4.830 -16.949  0.00  0.00    -0.150 OA
BRANCH  13  16
ATOM     16  C   UNL     1     -13.944   5.889 -17.660  0.00  0.00    +0.109 A 
ATOM     17  C   UNL     1     -12.935   6.834 -17.471  0.00  0.00    +0.030 A 
ATOM     18  C   UNL     1     -12.045   7.107 -18.514  0.00  0.00    +0.024 A 
ATOM     19  C   UNL     1     -12.131   6.417 -19.728  0.00  0.00    +0.025 A 
ATOM     20  C   UNL     1     -13.182   5.513 -19.918  0.00  0.00    +0.024 A 
ATOM     21  C   UNL     1     -14.077   5.229 -18.882  0.00  0.00    +0.030 A 
BRANCH  19  22
ATOM     22  N   UNL     1     -11.325   6.796 -20.809  0.00  0.00    -0.358 N 
ATOM     23  H   UNL     1     -10.369   6.458 -20.746  0.00  0.00    +0.142 HD
ATOM     24  H   UNL     1     -11.738   6.604 -21.717  0.00  0.00    +0.142 HD
ENDBRANCH  19  22
ENDBRANCH  13  16
ENDBRANCH   1  13
TORSDOF 5
ENDMDL
MODEL 6
REMARK VINA RESULT:      -7.4      5.617      8.069
REMARK  Name = min_compound993.pdb
REMARK  8 active torsions:
REMARK  status: ('A' for Active; 'I' for Inactive)
REMARK    1  A    between atoms: _3  and  _17
REMARK    2  A    between atoms: _4  and  _18
REMARK    3  A    between atoms: _9  and  _14
REMARK    4  A    between atoms: _11  and  _13
REMARK    5  A    between atoms: _14  and  _17
REMARK    6  A    between atoms: _18  and  _19
REMARK    7  A    between atoms: _18  and  _20
REMARK    8  A    between atoms: _18  and  _21
REMARK                            x       y       z     vdW  Elec       q    Type
REMARK                         _______ _______ _______ _____ _____    ______ ____
ROOT
ATOM      1  N   UNL     1     -17.182   2.475  -9.047  0.00  0.00    -0.216 N 
ATOM      2  H   UNL     1     -18.043   1.972  -9.262  0.00  0.00    +0.174 HD
ENDROOT
BRANCH   1   4
ATOM      3  C   UNL     1     -17.069   2.293  -6.536  0.00  0.00    +0.025 A 
ATOM      4  C   UNL     1     -16.581   2.047  -7.818  0.00  0.00    +0.048 A 
ATOM      5  C   UNL     1     -15.297   1.502  -7.944  0.00  0.00    +0.025 A 
ATOM      6  C   UNL     1     -14.528   1.193  -6.820  0.00  0.00    +0.006 A 
ATOM      7  C   UNL     1     -15.022   1.420  -5.522  0.00  0.00    -0.042 A 
ATOM      8  C   UNL     1     -16.317   1.952  -5.400  0.00  0.00    +0.006 A 
BRANCH   7   9
ATOM      9  C   UNL     1     -14.129   1.204  -4.336  0.00  0.00    -0.013 C 
ATOM     10  C   UNL     1     -13.236   0.989  -3.150  0.00  0.00    +0.015 C 
ATOM     11  C   UNL     1     -14.507   2.556  -3.806  0.00  0.00    +0.015 C 
ATOM     12  C   UNL     1     -13.751  -0.147  -4.865  0.00  0.00    +0.015 C 
ENDBRANCH   7   9
ENDBRANCH   1   4
BRANCH   1  13
ATOM     13  S   UNL     1     -17.376   4.069  -9.547  0.00  0.00    +0.072 S 
ATOM     14  O   UNL     1     -16.553   5.004  -8.820  0.00  0.00    -0.150 OA
ATOM     15  O   UNL     1     -18.806   4.253  -9.680  0.00  0.00    -0.150 OA
BRANCH  13  16
ATOM     16  C   UNL     1     -16.701   3.973 -11.195  0.00  0.00    +0.109 A 
ATOM     17  C   UNL     1     -17.300   3.150 -12.149  0.00  0.00    +0.030 A 
ATOM     18  C   UNL     1     -16.735   3.053 -13.424  0.00  0.00    +0.024 A 
ATOM     19  C   UNL     1     -15.603   3.799 -13.766  0.00  0.00    +0.025 A 
ATOM     20  C   UNL     1     -14.984   4.576 -12.779  0.00  0.00    +0.024 A 
ATOM     21  C   UNL     1     -15.540   4.685 -11.501  0.00  0.00    +0.030 A 
BRANCH  19  22
ATOM     22  N   UNL     1     -14.968   3.589 -14.996  0.00  0.00    -0.358 N 
ATOM     23  H   UNL     1     -15.557   3.785 -15.800  0.00  0.00    +0.142 HD
ATOM     24  H   UNL     1     -14.059   4.036 -15.071  0.00  0.00    +0.142 HD
ENDBRANCH  19  22
ENDBRANCH  13  16
ENDBRANCH   1  13
TORSDOF 5
ENDMDL
MODEL 7
REMARK VINA RESULT:      -7.4      5.855      8.260
REMARK  Name = min_compound993.pdb
REMARK  8 active torsions:
REMARK  status: ('A' for Active; 'I' for Inactive)
REMARK    1  A    between atoms: _3  and  _17
REMARK    2  A    between atoms: _4  and  _18
REMARK    3  A    between atoms: _9  and  _14
REMARK    4  A    between atoms: _11  and  _13
REMARK    5  A    between atoms: _14  and  _17
REMARK    6  A    between atoms: _18  and  _19
REMARK    7  A    between atoms: _18  and  _20
REMARK    8  A    between atoms: _18  and  _21
REMARK                            x       y       z     vdW  Elec       q    Type
REMARK                         _______ _______ _______ _____ _____    ______ ____
ROOT
ATOM      1  N   UNL     1     -17.610   2.020  -8.763  0.00  0.00    -0.216 N 
ATOM      2  H   UNL     1     -18.395   1.385  -8.614  0.00  0.00    +0.174 HD
ENDROOT
BRANCH   1   4
ATOM      3  C   UNL     1     -15.304   1.460  -7.915  0.00  0.00    +0.025 A 
ATOM      4  C   UNL     1     -16.610   1.914  -7.742  0.00  0.00    +0.048 A 
ATOM      5  C   UNL     1     -17.074   2.113  -6.435  0.00  0.00    +0.025 A 
ATOM      6  C   UNL     1     -16.249   1.883  -5.332  0.00  0.00    +0.006 A 
ATOM      7  C   UNL     1     -14.923   1.443  -5.499  0.00  0.00    -0.042 A 
ATOM      8  C   UNL     1     -14.457   1.260  -6.812  0.00  0.00    +0.006 A 
BRANCH   7   9
ATOM      9  C   UNL     1     -14.102   1.076  -4.299  0.00  0.00    -0.013 C 
ATOM     10  C   UNL     1     -13.280   0.709  -3.098  0.00  0.00    +0.015 C 
ATOM     11  C   UNL     1     -14.231   2.478  -3.782  0.00  0.00    +0.015 C 
ATOM     12  C   UNL     1     -13.973  -0.326  -4.815  0.00  0.00    +0.015 C 
ENDBRANCH   7   9
ENDBRANCH   1   4
BRANCH   1  13
ATOM     13  S   UNL     1     -18.217   3.450  -9.406  0.00  0.00    +0.072 S 
ATOM     14  O   UNL     1     -18.037   4.591  -8.541  0.00  0.00    -0.150 OA
ATOM     15  O   UNL     1     -19.513   3.101  -9.949  0.00  0.00    -0.150 OA
BRANCH  13  16
ATOM     16  C   UNL     1     -17.111   3.678 -10.785  0.00  0.00    +0.109 A 
ATOM     17  C   UNL     1     -15.939   4.418 -10.626  0.00  0.00    +0.030 A 
ATOM     18  C   UNL     1     -15.101   4.624 -11.727  0.00  0.00    +0.024 A 
ATOM     19  C   UNL     1     -15.404   4.064 -12.972  0.00  0.00    +0.025 A 
ATOM     20  C   UNL     1     -16.611   3.372 -13.126  0.00  0.00    +0.024 A 
ATOM     21  C   UNL     1     -17.456   3.156 -12.032  0.00  0.00    +0.030 A 
BRANCH  19  22
ATOM     22  N   UNL     1     -14.634   4.391 -14.095  0.00  0.00    -0.358 N 
ATOM     23  H   UNL     1     -13.699   4.717 -13.870  0.00  0.00    +0.142 HD
ATOM     24  H   UNL     1     -14.624   3.671 -14.811  0.00  0.00    +0.142 HD
ENDBRANCH  19  22
ENDBRANCH  13  16
ENDBRANCH   1  13
TORSDOF 5
ENDMDL
MODEL 8
REMARK VINA RESULT:      -7.0      4.044      7.665
REMARK  Name = min_compound993.pdb
REMARK  8 active torsions:
REMARK  status: ('A' for Active; 'I' for Inactive)
REMARK    1  A    between atoms: _3  and  _17
REMARK    2  A    between atoms: _4  and  _18
REMARK    3  A    between atoms: _9  and  _14
REMARK    4  A    between atoms: _11  and  _13
REMARK    5  A    between atoms: _14  and  _17
REMARK    6  A    between atoms: _18  and  _19
REMARK    7  A    between atoms: _18  and  _20
REMARK    8  A    between atoms: _18  and  _21
REMARK                            x       y       z     vdW  Elec       q    Type
REMARK                         _______ _______ _______ _____ _____    ______ ____
ROOT
ATOM      1  N   UNL     1     -14.496   5.329 -17.344  0.00  0.00    -0.216 N 
ATOM      2  H   UNL     1     -15.075   5.607 -16.550  0.00  0.00    +0.174 HD
ENDROOT
BRANCH   1   4
ATOM      3  C   UNL     1     -13.105   3.769 -15.936  0.00  0.00    +0.025 A 
ATOM      4  C   UNL     1     -13.779   4.111 -17.107  0.00  0.00    +0.048 A 
ATOM      5  C   UNL     1     -13.600   3.300 -18.235  0.00  0.00    +0.025 A 
ATOM      6  C   UNL     1     -12.784   2.167 -18.189  0.00  0.00    +0.006 A 
ATOM      7  C   UNL     1     -12.117   1.804 -17.005  0.00  0.00    -0.042 A 
ATOM      8  C   UNL     1     -12.312   2.612 -15.871  0.00  0.00    +0.006 A 
BRANCH   7   9
ATOM      9  C   UNL     1     -11.145   0.661 -17.017  0.00  0.00    -0.013 C 
ATOM     10  C   UNL     1     -10.173  -0.481 -17.028  0.00  0.00    +0.015 C 
ATOM     11  C   UNL     1     -12.237  -0.273 -16.587  0.00  0.00    +0.015 C 
ATOM     12  C   UNL     1     -10.052   1.595 -17.446  0.00  0.00    +0.015 C 
ENDBRANCH   7   9
ENDBRANCH   1   4
BRANCH   1  13
ATOM     13  S   UNL     1     -13.867   6.725 -18.039  0.00  0.00    +0.072 S 
ATOM     14  O   UNL     1     -14.168   6.853 -19.444  0.00  0.00    -0.150 OA
ATOM     15  O   UNL     1     -12.511   6.821 -17.536  0.00  0.00    -0.150 OA
BRANCH  13  16
ATOM     16  C   UNL     1     -14.831   7.966 -17.197  0.00  0.00    +0.109 A 
ATOM     17  C   UNL     1     -14.900   7.972 -15.803  0.00  0.00    +0.030 A 
ATOM     18  C   UNL     1     -15.693   8.926 -15.158  0.00  0.00    +0.024 A 
ATOM     19  C   UNL     1     -16.385   9.896 -15.890  0.00  0.00    +0.025 A 
ATOM     20  C   UNL     1     -16.348   9.840 -17.288  0.00  0.00    +0.024 A 
ATOM     21  C   UNL     1     -15.556   8.894 -17.946  0.00  0.00    +0.030 A 
BRANCH  19  22
ATOM     22  N   UNL     1     -17.282  10.755 -15.244  0.00  0.00    -0.358 N 
ATOM     23  H   UNL     1     -17.345  11.676 -15.668  0.00  0.00    +0.142 HD
ATOM     24  H   UNL     1     -18.197  10.347 -15.080  0.00  0.00    +0.142 HD
ENDBRANCH  19  22
ENDBRANCH  13  16
ENDBRANCH   1  13
TORSDOF 5
ENDMDL
MODEL 9
REMARK VINA RESULT:      -7.0      4.115      6.821
REMARK  Name = min_compound993.pdb
REMARK  8 active torsions:
REMARK  status: ('A' for Active; 'I' for Inactive)
REMARK    1  A    between atoms: _3  and  _17
REMARK    2  A    between atoms: _4  and  _18
REMARK    3  A    between atoms: _9  and  _14
REMARK    4  A    between atoms: _11  and  _13
REMARK    5  A    between atoms: _14  and  _17
REMARK    6  A    between atoms: _18  and  _19
REMARK    7  A    between atoms: _18  and  _20
REMARK    8  A    between atoms: _18  and  _21
REMARK                            x       y       z     vdW  Elec       q    Type
REMARK                         _______ _______ _______ _____ _____    ______ ____
ROOT
ATOM      1  N   UNL     1     -14.288   4.196 -18.341  0.00  0.00    -0.216 N 
ATOM      2  H   UNL     1     -15.278   4.147 -18.097  0.00  0.00    +0.174 HD
ENDROOT
BRANCH   1   4
ATOM      3  C   UNL     1     -13.185   2.886 -16.493  0.00  0.00    +0.025 A 
ATOM      4  C   UNL     1     -13.535   3.091 -17.826  0.00  0.00    +0.048 A 
ATOM      5  C   UNL     1     -12.955   2.265 -18.797  0.00  0.00    +0.025 A 
ATOM      6  C   UNL     1     -12.064   1.249 -18.445  0.00  0.00    +0.006 A 
ATOM      7  C   UNL     1     -11.720   1.023 -17.100  0.00  0.00    -0.042 A 
ATOM      8  C   UNL     1     -12.317   1.844 -16.127  0.00  0.00    +0.006 A 
BRANCH   7   9
ATOM      9  C   UNL     1     -10.663   0.016 -16.759  0.00  0.00    -0.013 C 
ATOM     10  C   UNL     1      -9.605  -0.992 -16.417  0.00  0.00    +0.015 C 
ATOM     11  C   UNL     1     -11.709  -0.884 -16.170  0.00  0.00    +0.015 C 
ATOM     12  C   UNL     1      -9.616   0.915 -17.347  0.00  0.00    +0.015 C 
ENDBRANCH   7   9
ENDBRANCH   1   4
BRANCH   1  13
ATOM     13  S   UNL     1     -13.825   5.812 -18.296  0.00  0.00    +0.072 S 
ATOM     14  O   UNL     1     -12.847   6.102 -17.276  0.00  0.00    -0.150 OA
ATOM     15  O   UNL     1     -15.058   6.564 -18.407  0.00  0.00    -0.150 OA
BRANCH  13  16
ATOM     16  C   UNL     1     -12.982   5.948 -19.861  0.00  0.00    +0.109 A 
ATOM     17  C   UNL     1     -13.406   5.189 -20.952  0.00  0.00    +0.030 A 
ATOM     18  C   UNL     1     -12.710   5.275 -22.161  0.00  0.00    +0.024 A 
ATOM     19  C   UNL     1     -11.621   6.141 -22.302  0.00  0.00    +0.025 A 
ATOM     20  C   UNL     1     -11.177   6.854 -21.182  0.00  0.00    +0.024 A 
ATOM     21  C   UNL     1     -11.866   6.779 -19.967  0.00  0.00    +0.030 A 
BRANCH  19  22
ATOM     22  N   UNL     1     -10.850   6.116 -23.470  0.00  0.00    -0.358 N 
ATOM     23  H   UNL     1     -10.453   7.017 -23.719  0.00  0.00    +0.142 HD
ATOM     24  H   UNL     1     -10.156   5.375 -23.489  0.00  0.00    +0.142 HD
ENDBRANCH  19  22
ENDBRANCH  13  16
ENDBRANCH   1  13
TORSDOF 5
ENDMDL
