MODEL 1
REMARK VINA RESULT:      -8.2      0.000      0.000
REMARK  Name = min_compound936.pdb
REMARK  3 active torsions:
REMARK  status: ('A' for Active; 'I' for Inactive)
REMARK    1  A    between atoms: _6  and  _19
REMARK    2  A    between atoms: _10  and  _17
REMARK    3  A    between atoms: _13  and  _18
REMARK                            x       y       z     vdW  Elec       q    Type
REMARK                         _______ _______ _______ _____ _____    ______ ____
ROOT
ATOM      1 CL   UNL     1     -11.427  -0.419 -17.168  0.00  0.00    -0.114 Cl
ATOM      2  C   UNL     1     -11.922   1.040 -16.341  0.00  0.00    +0.147 C 
ATOM      3  C   UNL     1     -13.127   1.541 -16.664  0.00  0.00    +0.034 C 
ATOM      4  C   UNL     1     -13.752   2.820 -15.875  0.00  0.00    -0.024 C 
ATOM      5  C   UNL     1     -14.955   1.953 -15.656  0.00  0.00    +0.011 C 
ATOM      6  C   UNL     1     -14.635   3.428 -16.797  0.00  0.00    +0.007 C 
ATOM      7  C   UNL     1     -15.266   4.655 -16.919  0.00  0.00    +0.008 C 
ATOM      8  C   UNL     1     -14.063   5.523 -17.139  0.00  0.00    +0.044 C 
ATOM      9  C   UNL     1     -12.700   4.762 -17.205  0.00  0.00    +0.185 C 
ATOM     10  O   UNL     1     -11.779   5.843 -17.280  0.00  0.00    -0.461 OA
ATOM     11  C   UNL     1     -12.379   6.818 -18.051  0.00  0.00    +0.311 C 
ATOM     12  O   UNL     1     -11.803   7.805 -18.479  0.00  0.00    -0.251 OA
ATOM     13  C   UNL     1     -13.855   6.489 -18.283  0.00  0.00    +0.101 C 
ATOM     14  C   UNL     1     -14.746   7.713 -18.206  0.00  0.00    +0.019 C 
ATOM     15  C   UNL     1     -12.549   3.688 -16.095  0.00  0.00    +0.046 C 
ATOM     16  C   UNL     1     -11.189   3.203 -15.683  0.00  0.00    +0.061 C 
ATOM     17  C   UNL     1      -9.986   4.071 -15.902  0.00  0.00    +0.016 C 
ATOM     18  C   UNL     1     -10.988   1.856 -15.543  0.00  0.00    +0.154 C 
ATOM     19  O   UNL     1      -9.995   1.201 -15.121  0.00  0.00    -0.296 OA
ENDROOT
TORSDOF 0
ENDMDL
MODEL 2
REMARK VINA RESULT:      -7.7      2.737      5.863
REMARK  Name = min_compound936.pdb
REMARK  3 active torsions:
REMARK  status: ('A' for Active; 'I' for Inactive)
REMARK    1  A    between atoms: _6  and  _19
REMARK    2  A    between atoms: _10  and  _17
REMARK    3  A    between atoms: _13  and  _18
REMARK                            x       y       z     vdW  Elec       q    Type
REMARK                         _______ _______ _______ _____ _____    ______ ____
ROOT
ATOM      1 CL   UNL     1     -15.113   5.991 -19.091  0.00  0.00    -0.114 Cl
ATOM      2  C   UNL     1     -14.255   5.302 -17.732  0.00  0.00    +0.147 C 
ATOM      3  C   UNL     1     -12.967   4.972 -17.932  0.00  0.00    +0.034 C 
ATOM      4  C   UNL     1     -12.029   4.441 -16.712  0.00  0.00    -0.024 C 
ATOM      5  C   UNL     1     -11.081   5.528 -17.120  0.00  0.00    +0.011 C 
ATOM      6  C   UNL     1     -11.035   3.647 -17.328  0.00  0.00    +0.007 C 
ATOM      7  C   UNL     1     -10.116   2.695 -16.918  0.00  0.00    +0.008 C 
ATOM      8  C   UNL     1     -11.066   1.607 -16.510  0.00  0.00    +0.044 C 
ATOM      9  C   UNL     1     -12.577   1.922 -16.750  0.00  0.00    +0.185 C 
ATOM     10  O   UNL     1     -13.197   0.790 -16.152  0.00  0.00    -0.461 OA
ATOM     11  C   UNL     1     -12.381  -0.290 -16.418  0.00  0.00    +0.311 C 
ATOM     12  O   UNL     1     -12.696  -1.454 -16.218  0.00  0.00    -0.251 OA
ATOM     13  C   UNL     1     -11.039   0.173 -16.987  0.00  0.00    +0.101 C 
ATOM     14  C   UNL     1      -9.867  -0.620 -16.443  0.00  0.00    +0.019 C 
ATOM     15  C   UNL     1     -12.978   3.354 -16.304  0.00  0.00    +0.046 C 
ATOM     16  C   UNL     1     -14.410   3.684 -15.998  0.00  0.00    +0.061 C 
ATOM     17  C   UNL     1     -15.359   2.596 -15.590  0.00  0.00    +0.016 C 
ATOM     18  C   UNL     1     -14.942   4.835 -16.513  0.00  0.00    +0.154 C 
ATOM     19  O   UNL     1     -16.062   5.389 -16.334  0.00  0.00    -0.296 OA
ENDROOT
TORSDOF 0
ENDMDL
MODEL 3
REMARK VINA RESULT:      -7.2      3.198      5.919
REMARK  Name = min_compound936.pdb
REMARK  3 active torsions:
REMARK  status: ('A' for Active; 'I' for Inactive)
REMARK    1  A    between atoms: _6  and  _19
REMARK    2  A    between atoms: _10  and  _17
REMARK    3  A    between atoms: _13  and  _18
REMARK                            x       y       z     vdW  Elec       q    Type
REMARK                         _______ _______ _______ _____ _____    ______ ____
ROOT
ATOM      1 CL   UNL     1     -12.242   6.472 -21.984  0.00  0.00    -0.114 Cl
ATOM      2  C   UNL     1     -12.860   5.619 -20.588  0.00  0.00    +0.147 C 
ATOM      3  C   UNL     1     -12.154   5.730 -19.448  0.00  0.00    +0.034 C 
ATOM      4  C   UNL     1     -12.692   5.089 -18.053  0.00  0.00    -0.024 C 
ATOM      5  C   UNL     1     -12.495   6.460 -17.479  0.00  0.00    +0.011 C 
ATOM      6  C   UNL     1     -11.530   4.843 -17.286  0.00  0.00    +0.007 C 
ATOM      7  C   UNL     1     -11.206   4.089 -16.170  0.00  0.00    +0.008 C 
ATOM      8  C   UNL     1     -11.403   2.717 -16.744  0.00  0.00    +0.044 C 
ATOM      9  C   UNL     1     -11.794   2.681 -18.256  0.00  0.00    +0.185 C 
ATOM     10  O   UNL     1     -12.033   1.293 -18.450  0.00  0.00    -0.461 OA
ATOM     11  C   UNL     1     -11.108   0.623 -17.676  0.00  0.00    +0.311 C 
ATOM     12  O   UNL     1     -10.899  -0.579 -17.742  0.00  0.00    -0.251 OA
ATOM     13  C   UNL     1     -10.396   1.590 -16.729  0.00  0.00    +0.101 C 
ATOM     14  C   UNL     1     -10.174   1.000 -15.349  0.00  0.00    +0.019 C 
ATOM     15  C   UNL     1     -12.888   3.717 -18.627  0.00  0.00    +0.046 C 
ATOM     16  C   UNL     1     -13.730   3.532 -19.855  0.00  0.00    +0.061 C 
ATOM     17  C   UNL     1     -13.926   2.160 -20.429  0.00  0.00    +0.016 C 
ATOM     18  C   UNL     1     -13.926   4.604 -20.684  0.00  0.00    +0.154 C 
ATOM     19  O   UNL     1     -14.653   4.747 -21.705  0.00  0.00    -0.296 OA
ENDROOT
TORSDOF 0
ENDMDL
MODEL 4
REMARK VINA RESULT:      -7.0     12.727     15.071
REMARK  Name = min_compound936.pdb
REMARK  3 active torsions:
REMARK  status: ('A' for Active; 'I' for Inactive)
REMARK    1  A    between atoms: _6  and  _19
REMARK    2  A    between atoms: _10  and  _17
REMARK    3  A    between atoms: _13  and  _18
REMARK                            x       y       z     vdW  Elec       q    Type
REMARK                         _______ _______ _______ _____ _____    ______ ____
ROOT
ATOM      1 CL   UNL     1     -14.147   1.192  -7.589  0.00  0.00    -0.114 Cl
ATOM      2  C   UNL     1     -14.891   1.156  -6.007  0.00  0.00    +0.147 C 
ATOM      3  C   UNL     1     -14.244   0.472  -5.047  0.00  0.00    +0.034 C 
ATOM      4  C   UNL     1     -14.769   0.470  -3.507  0.00  0.00    -0.024 C 
ATOM      5  C   UNL     1     -13.378   0.904  -3.152  0.00  0.00    +0.011 C 
ATOM      6  C   UNL     1     -14.293  -0.741  -2.955  0.00  0.00    +0.007 C 
ATOM      7  C   UNL     1     -14.576  -1.514  -1.840  0.00  0.00    +0.008 C 
ATOM      8  C   UNL     1     -15.967  -1.948  -2.196  0.00  0.00    +0.044 C 
ATOM      9  C   UNL     1     -16.479  -1.458  -3.588  0.00  0.00    +0.185 C 
ATOM     10  O   UNL     1     -17.828  -1.905  -3.563  0.00  0.00    -0.461 OA
ATOM     11  C   UNL     1     -17.828  -3.119  -2.906  0.00  0.00    +0.311 C 
ATOM     12  O   UNL     1     -18.784  -3.878  -2.866  0.00  0.00    -0.251 OA
ATOM     13  C   UNL     1     -16.475  -3.371  -2.239  0.00  0.00    +0.101 C 
ATOM     14  C   UNL     1     -16.608  -4.004  -0.867  0.00  0.00    +0.019 C 
ATOM     15  C   UNL     1     -16.160   0.036  -3.862  0.00  0.00    +0.046 C 
ATOM     16  C   UNL     1     -16.952   0.811  -4.874  0.00  0.00    +0.061 C 
ATOM     17  C   UNL     1     -18.343   0.377  -5.229  0.00  0.00    +0.016 C 
ATOM     18  C   UNL     1     -16.280   1.596  -5.772  0.00  0.00    +0.154 C 
ATOM     19  O   UNL     1     -16.695   2.409  -6.643  0.00  0.00    -0.296 OA
ENDROOT
TORSDOF 0
ENDMDL
MODEL 5
REMARK VINA RESULT:      -6.8      2.767      5.230
REMARK  Name = min_compound936.pdb
REMARK  3 active torsions:
REMARK  status: ('A' for Active; 'I' for Inactive)
REMARK    1  A    between atoms: _6  and  _19
REMARK    2  A    between atoms: _10  and  _17
REMARK    3  A    between atoms: _13  and  _18
REMARK                            x       y       z     vdW  Elec       q    Type
REMARK                         _______ _______ _______ _____ _____    ______ ____
ROOT
ATOM      1 CL   UNL     1     -15.463   8.001 -14.015  0.00  0.00    -0.114 Cl
ATOM      2  C   UNL     1     -15.340   6.874 -15.346  0.00  0.00    +0.147 C 
ATOM      3  C   UNL     1     -15.558   5.578 -15.065  0.00  0.00    +0.034 C 
ATOM      4  C   UNL     1     -15.596   4.451 -16.239  0.00  0.00    -0.024 C 
ATOM      5  C   UNL     1     -16.931   4.070 -15.672  0.00  0.00    +0.011 C 
ATOM      6  C   UNL     1     -15.230   3.242 -15.604  0.00  0.00    +0.007 C 
ATOM      7  C   UNL     1     -14.796   1.990 -16.008  0.00  0.00    +0.008 C 
ATOM      8  C   UNL     1     -13.460   2.371 -16.574  0.00  0.00    +0.044 C 
ATOM      9  C   UNL     1     -13.089   3.883 -16.438  0.00  0.00    +0.185 C 
ATOM     10  O   UNL     1     -11.871   3.939 -17.169  0.00  0.00    -0.461 OA
ATOM     11  C   UNL     1     -11.208   2.755 -16.918  0.00  0.00    +0.311 C 
ATOM     12  O   UNL     1     -10.047   2.540 -17.231  0.00  0.00    -0.251 OA
ATOM     13  C   UNL     1     -12.127   1.762 -16.206  0.00  0.00    +0.101 C 
ATOM     14  C   UNL     1     -11.955   0.342 -16.709  0.00  0.00    +0.019 C 
ATOM     15  C   UNL     1     -14.261   4.832 -16.805  0.00  0.00    +0.046 C 
ATOM     16  C   UNL     1     -13.993   6.254 -17.204  0.00  0.00    +0.061 C 
ATOM     17  C   UNL     1     -12.658   6.635 -17.771  0.00  0.00    +0.016 C 
ATOM     18  C   UNL     1     -14.758   7.245 -16.650  0.00  0.00    +0.154 C 
ATOM     19  O   UNL     1     -14.809   8.486 -16.879  0.00  0.00    -0.296 OA
ENDROOT
TORSDOF 0
ENDMDL
MODEL 6
REMARK VINA RESULT:      -6.6      3.154      5.624
REMARK  Name = min_compound936.pdb
REMARK  3 active torsions:
REMARK  status: ('A' for Active; 'I' for Inactive)
REMARK    1  A    between atoms: _6  and  _19
REMARK    2  A    between atoms: _10  and  _17
REMARK    3  A    between atoms: _13  and  _18
REMARK                            x       y       z     vdW  Elec       q    Type
REMARK                         _______ _______ _______ _____ _____    ______ ____
ROOT
ATOM      1 CL   UNL     1     -17.983   5.375 -18.076  0.00  0.00    -0.114 Cl
ATOM      2  C   UNL     1     -16.604   5.077 -17.044  0.00  0.00    +0.147 C 
ATOM      3  C   UNL     1     -15.389   5.305 -17.573  0.00  0.00    +0.034 C 
ATOM      4  C   UNL     1     -14.037   5.186 -16.675  0.00  0.00    -0.024 C 
ATOM      5  C   UNL     1     -13.730   6.572 -17.158  0.00  0.00    +0.011 C 
ATOM      6  C   UNL     1     -13.008   4.877 -17.594  0.00  0.00    +0.007 C 
ATOM      7  C   UNL     1     -11.718   4.377 -17.523  0.00  0.00    +0.008 C 
ATOM      8  C   UNL     1     -12.025   2.991 -17.040  0.00  0.00    +0.044 C 
ATOM      9  C   UNL     1     -13.545   2.664 -16.886  0.00  0.00    +0.185 C 
ATOM     10  O   UNL     1     -13.494   1.369 -16.300  0.00  0.00    -0.461 OA
ATOM     11  C   UNL     1     -12.420   0.720 -16.874  0.00  0.00    +0.311 C 
ATOM     12  O   UNL     1     -12.191  -0.473 -16.748  0.00  0.00    -0.251 OA
ATOM     13  C   UNL     1     -11.564   1.701 -17.678  0.00  0.00    +0.101 C 
ATOM     14  C   UNL     1     -10.078   1.447 -17.518  0.00  0.00    +0.019 C 
ATOM     15  C   UNL     1     -14.344   3.799 -16.192  0.00  0.00    +0.046 C 
ATOM     16  C   UNL     1     -15.658   3.511 -15.526  0.00  0.00    +0.061 C 
ATOM     17  C   UNL     1     -15.964   2.124 -15.043  0.00  0.00    +0.016 C 
ATOM     18  C   UNL     1     -16.712   4.351 -15.764  0.00  0.00    +0.154 C 
ATOM     19  O   UNL     1     -17.871   4.396 -15.266  0.00  0.00    -0.296 OA
ENDROOT
TORSDOF 0
ENDMDL
MODEL 7
REMARK VINA RESULT:      -6.6      1.213      1.224
REMARK  Name = min_compound936.pdb
REMARK  3 active torsions:
REMARK  status: ('A' for Active; 'I' for Inactive)
REMARK    1  A    between atoms: _6  and  _19
REMARK    2  A    between atoms: _10  and  _17
REMARK    3  A    between atoms: _13  and  _18
REMARK                            x       y       z     vdW  Elec       q    Type
REMARK                         _______ _______ _______ _____ _____    ______ ____
ROOT
ATOM      1 CL   UNL     1     -12.307  -0.581 -16.577  0.00  0.00    -0.114 Cl
ATOM      2  C   UNL     1     -12.533   1.124 -16.263  0.00  0.00    +0.147 C 
ATOM      3  C   UNL     1     -13.667   1.681 -16.723  0.00  0.00    +0.034 C 
ATOM      4  C   UNL     1     -14.050   3.226 -16.386  0.00  0.00    -0.024 C 
ATOM      5  C   UNL     1     -15.354   2.676 -15.891  0.00  0.00    +0.011 C 
ATOM      6  C   UNL     1     -14.883   3.642 -17.450  0.00  0.00    +0.007 C 
ATOM      7  C   UNL     1     -15.332   4.850 -17.958  0.00  0.00    +0.008 C 
ATOM      8  C   UNL     1     -14.027   5.401 -18.453  0.00  0.00    +0.044 C 
ATOM      9  C   UNL     1     -12.798   4.452 -18.278  0.00  0.00    +0.185 C 
ATOM     10  O   UNL     1     -11.733   5.293 -18.703  0.00  0.00    -0.461 OA
ATOM     11  C   UNL     1     -12.226   6.054 -19.744  0.00  0.00    +0.311 C 
ATOM     12  O   UNL     1     -11.534   6.750 -20.472  0.00  0.00    -0.251 OA
ATOM     13  C   UNL     1     -13.744   5.907 -19.849  0.00  0.00    +0.101 C 
ATOM     14  C   UNL     1     -14.438   7.217 -20.166  0.00  0.00    +0.019 C 
ATOM     15  C   UNL     1     -12.746   3.777 -16.882  0.00  0.00    +0.046 C 
ATOM     16  C   UNL     1     -11.452   3.240 -16.343  0.00  0.00    +0.061 C 
ATOM     17  C   UNL     1     -10.147   3.790 -16.838  0.00  0.00    +0.016 C 
ATOM     18  C   UNL     1     -11.444   1.993 -15.777  0.00  0.00    +0.154 C 
ATOM     19  O   UNL     1     -10.537   1.357 -15.172  0.00  0.00    -0.296 OA
ENDROOT
TORSDOF 0
ENDMDL
MODEL 8
REMARK VINA RESULT:      -6.4      3.512      4.788
REMARK  Name = min_compound936.pdb
REMARK  3 active torsions:
REMARK  status: ('A' for Active; 'I' for Inactive)
REMARK    1  A    between atoms: _6  and  _19
REMARK    2  A    between atoms: _10  and  _17
REMARK    3  A    between atoms: _13  and  _18
REMARK                            x       y       z     vdW  Elec       q    Type
REMARK                         _______ _______ _______ _____ _____    ______ ____
ROOT
ATOM      1 CL   UNL     1     -15.200   4.923 -10.967  0.00  0.00    -0.114 Cl
ATOM      2  C   UNL     1     -15.762   5.114 -12.611  0.00  0.00    +0.147 C 
ATOM      3  C   UNL     1     -15.392   4.169 -13.493  0.00  0.00    +0.034 C 
ATOM      4  C   UNL     1     -15.954   4.168 -15.020  0.00  0.00    -0.024 C 
ATOM      5  C   UNL     1     -16.366   2.753 -14.747  0.00  0.00    +0.011 C 
ATOM      6  C   UNL     1     -14.965   3.499 -15.778  0.00  0.00    +0.007 C 
ATOM      7  C   UNL     1     -14.641   3.380 -17.120  0.00  0.00    +0.008 C 
ATOM      8  C   UNL     1     -14.229   4.796 -17.393  0.00  0.00    +0.044 C 
ATOM      9  C   UNL     1     -14.259   5.747 -16.153  0.00  0.00    +0.185 C 
ATOM     10  O   UNL     1     -13.960   7.000 -16.755  0.00  0.00    -0.461 OA
ATOM     11  C   UNL     1     -13.044   6.746 -17.755  0.00  0.00    +0.311 C 
ATOM     12  O   UNL     1     -12.424   7.612 -18.353  0.00  0.00    -0.251 OA
ATOM     13  C   UNL     1     -12.922   5.243 -18.007  0.00  0.00    +0.101 C 
ATOM     14  C   UNL     1     -12.803   4.905 -19.480  0.00  0.00    +0.019 C 
ATOM     15  C   UNL     1     -15.541   5.584 -15.294  0.00  0.00    +0.046 C 
ATOM     16  C   UNL     1     -15.992   6.686 -14.380  0.00  0.00    +0.061 C 
ATOM     17  C   UNL     1     -15.579   8.102 -14.653  0.00  0.00    +0.016 C 
ATOM     18  C   UNL     1     -16.368   6.366 -13.103  0.00  0.00    +0.154 C 
ATOM     19  O   UNL     1     -16.870   7.067 -12.182  0.00  0.00    -0.296 OA
ENDROOT
TORSDOF 0
ENDMDL
MODEL 9
REMARK VINA RESULT:      -6.4     11.399     12.589
REMARK  Name = min_compound936.pdb
REMARK  3 active torsions:
REMARK  status: ('A' for Active; 'I' for Inactive)
REMARK    1  A    between atoms: _6  and  _19
REMARK    2  A    between atoms: _10  and  _17
REMARK    3  A    between atoms: _13  and  _18
REMARK                            x       y       z     vdW  Elec       q    Type
REMARK                         _______ _______ _______ _____ _____    ______ ____
ROOT
ATOM      1 CL   UNL     1     -14.848  -2.177  -3.556  0.00  0.00    -0.114 Cl
ATOM      2  C   UNL     1     -14.835  -0.720  -4.523  0.00  0.00    +0.147 C 
ATOM      3  C   UNL     1     -15.030   0.441  -3.874  0.00  0.00    +0.034 C 
ATOM      4  C   UNL     1     -14.914   1.871  -4.642  0.00  0.00    -0.024 C 
ATOM      5  C   UNL     1     -13.943   2.244  -3.562  0.00  0.00    +0.011 C 
ATOM      6  C   UNL     1     -15.733   2.756  -3.904  0.00  0.00    +0.007 C 
ATOM      7  C   UNL     1     -16.315   3.995  -4.115  0.00  0.00    +0.008 C 
ATOM      8  C   UNL     1     -17.286   3.622  -5.196  0.00  0.00    +0.044 C 
ATOM      9  C   UNL     1     -17.306   2.107  -5.576  0.00  0.00    +0.185 C 
ATOM     10  O   UNL     1     -18.197   2.108  -6.683  0.00  0.00    -0.461 OA
ATOM     11  C   UNL     1     -19.170   3.046  -6.403  0.00  0.00    +0.311 C 
ATOM     12  O   UNL     1     -20.200   3.179  -7.046  0.00  0.00    -0.251 OA
ATOM     13  C   UNL     1     -18.774   3.888  -5.189  0.00  0.00    +0.101 C 
ATOM     14  C   UNL     1     -19.124   5.354  -5.356  0.00  0.00    +0.019 C 
ATOM     15  C   UNL     1     -15.885   1.499  -5.722  0.00  0.00    +0.046 C 
ATOM     16  C   UNL     1     -15.670   0.250  -6.526  0.00  0.00    +0.061 C 
ATOM     17  C   UNL     1     -16.641  -0.123  -7.607  0.00  0.00    +0.016 C 
ATOM     18  C   UNL     1     -14.892  -0.745  -5.997  0.00  0.00    +0.154 C 
ATOM     19  O   UNL     1     -14.477  -1.830  -6.490  0.00  0.00    -0.296 OA
ENDROOT
TORSDOF 0
ENDMDL
