MODEL 1
REMARK VINA RESULT:      -7.7      0.000      0.000
REMARK  Name = min_compound988.pdb
REMARK  7 active torsions:
REMARK  status: ('A' for Active; 'I' for Inactive)
REMARK    1  A    between atoms: _2  and  _21
REMARK    2  A    between atoms: _8  and  _14
REMARK    3  A    between atoms: _10  and  _12
REMARK    4  A    between atoms: _13  and  _14
REMARK    5  A    between atoms: _13  and  _17
REMARK    6  A    between atoms: _14  and  _15
REMARK    7  A    between atoms: _14  and  _16
REMARK                            x       y       z     vdW  Elec       q    Type
REMARK                         _______ _______ _______ _____ _____    ______ ____
ROOT
ATOM      1  O   UNL     1     -14.708   3.768 -15.828  0.00  0.00    -0.342 OA
ENDROOT
BRANCH   1   3
ATOM      2  N   UNL     1     -13.547   1.889 -16.335  0.00  0.00    -0.216 NA
ATOM      3  C   UNL     1     -13.475   3.187 -15.968  0.00  0.00    +0.248 A 
ATOM      4  C   UNL     1     -12.258   3.837 -15.703  0.00  0.00    +0.092 A 
ATOM      5  C   UNL     1     -11.048   3.152 -15.840  0.00  0.00    +0.035 A 
ATOM      6  C   UNL     1     -11.130   1.808 -16.139  0.00  0.00    -0.005 A 
ATOM      7  C   UNL     1     -10.054   0.770 -16.164  0.00  0.00    +0.039 C 
ATOM      8  C   UNL     1     -10.756  -0.380 -16.899  0.00  0.00    +0.011 C 
ATOM      9  C   UNL     1     -12.252  -0.248 -16.589  0.00  0.00    +0.056 C 
ATOM     10  C   UNL     1     -12.374   1.236 -16.383  0.00  0.00    +0.050 A 
BRANCH   5  11
ATOM     11  N   UNL     1      -9.850   3.743 -15.437  0.00  0.00    -0.358 N 
ATOM     12  H   UNL     1      -9.050   3.117 -15.396  0.00  0.00    +0.142 HD
ATOM     13  H   UNL     1      -9.921   4.324 -14.608  0.00  0.00    +0.142 HD
ENDBRANCH   5  11
ENDBRANCH   1   3
BRANCH   1  14
ATOM     14  S   UNL     1     -15.964   2.958 -15.710  0.00  0.00    -0.013 S 
BRANCH  14  15
ATOM     15  C   UNL     1     -16.056   3.419 -13.809  0.00  0.00    +0.098 A 
ATOM     16  C   UNL     1     -15.145   4.334 -13.257  0.00  0.00    +0.028 A 
ATOM     17  C   UNL     1     -15.234   4.667 -11.903  0.00  0.00    +0.005 A 
ATOM     18  C   UNL     1     -16.217   4.091 -11.088  0.00  0.00    -0.050 A 
ATOM     19  C   UNL     1     -16.343   4.501  -9.650  0.00  0.00    +0.044 C 
ATOM     20  C   UNL     1     -17.128   3.188 -11.649  0.00  0.00    +0.005 A 
ATOM     21  C   UNL     1     -17.049   2.843 -13.002  0.00  0.00    +0.028 A 
ENDBRANCH  14  15
BRANCH  14  22
ATOM     22  O   UNL     1     -16.661   4.110 -16.347  0.00  0.00    -0.263 OA
ATOM     23  H   UNL     1     -16.644   4.870 -15.745  0.00  0.00    +0.244 HD
ENDBRANCH  14  22
BRANCH  14  24
ATOM     24  O   UNL     1     -17.221   2.147 -15.592  0.00  0.00    -0.263 OA
ATOM     25  H   UNL     1     -17.991   2.726 -15.700  0.00  0.00    +0.244 HD
ENDBRANCH  14  24
ENDBRANCH   1  14
TORSDOF 6
ENDMDL
MODEL 2
REMARK VINA RESULT:      -7.2      1.304      2.226
REMARK  Name = min_compound988.pdb
REMARK  7 active torsions:
REMARK  status: ('A' for Active; 'I' for Inactive)
REMARK    1  A    between atoms: _2  and  _21
REMARK    2  A    between atoms: _8  and  _14
REMARK    3  A    between atoms: _10  and  _12
REMARK    4  A    between atoms: _13  and  _14
REMARK    5  A    between atoms: _13  and  _17
REMARK    6  A    between atoms: _14  and  _15
REMARK    7  A    between atoms: _14  and  _16
REMARK                            x       y       z     vdW  Elec       q    Type
REMARK                         _______ _______ _______ _____ _____    ______ ____
ROOT
ATOM      1  O   UNL     1     -13.949   4.221 -15.568  0.00  0.00    -0.342 OA
ENDROOT
BRANCH   1   3
ATOM      2  N   UNL     1     -12.292   2.682 -15.418  0.00  0.00    -0.216 NA
ATOM      3  C   UNL     1     -13.254   3.222 -16.198  0.00  0.00    +0.248 A 
ATOM      4  C   UNL     1     -13.465   2.830 -17.530  0.00  0.00    +0.092 A 
ATOM      5  C   UNL     1     -12.683   1.822 -18.101  0.00  0.00    +0.035 A 
ATOM      6  C   UNL     1     -11.652   1.329 -17.328  0.00  0.00    -0.005 A 
ATOM      7  C   UNL     1     -10.538   0.404 -17.702  0.00  0.00    +0.039 C 
ATOM      8  C   UNL     1      -9.992   0.008 -16.324  0.00  0.00    +0.011 C 
ATOM      9  C   UNL     1     -10.272   1.191 -15.388  0.00  0.00    +0.056 C 
ATOM     10  C   UNL     1     -11.506   1.772 -16.017  0.00  0.00    +0.050 A 
BRANCH   5  11
ATOM     11  N   UNL     1     -12.785   1.532 -19.462  0.00  0.00    -0.358 N 
ATOM     12  H   UNL     1     -13.505   2.046 -19.961  0.00  0.00    +0.142 HD
ATOM     13  H   UNL     1     -12.799   0.542 -19.685  0.00  0.00    +0.142 HD
ENDBRANCH   5  11
ENDBRANCH   1   3
BRANCH   1  14
ATOM     14  S   UNL     1     -15.411   4.453 -15.810  0.00  0.00    -0.013 S 
BRANCH  14  15
ATOM     15  C   UNL     1     -15.752   4.150 -13.906  0.00  0.00    +0.098 A 
ATOM     16  C   UNL     1     -16.758   3.259 -13.499  0.00  0.00    +0.028 A 
ATOM     17  C   UNL     1     -16.977   3.040 -12.136  0.00  0.00    +0.005 A 
ATOM     18  C   UNL     1     -16.210   3.705 -11.172  0.00  0.00    -0.050 A 
ATOM     19  C   UNL     1     -16.412   3.418  -9.713  0.00  0.00    +0.044 C 
ATOM     20  C   UNL     1     -15.202   4.584 -11.587  0.00  0.00    +0.005 A 
ATOM     21  C   UNL     1     -14.974   4.816 -12.947  0.00  0.00    +0.028 A 
ENDBRANCH  14  15
BRANCH  14  22
ATOM     22  O   UNL     1     -15.084   5.905 -15.844  0.00  0.00    -0.263 OA
ATOM     23  H   UNL     1     -14.137   6.026 -15.675  0.00  0.00    +0.244 HD
ENDBRANCH  14  22
BRANCH  14  24
ATOM     24  O   UNL     1     -16.873   4.684 -16.053  0.00  0.00    -0.263 OA
ATOM     25  H   UNL     1     -17.254   5.165 -15.302  0.00  0.00    +0.244 HD
ENDBRANCH  14  24
ENDBRANCH   1  14
TORSDOF 6
ENDMDL
MODEL 3
REMARK VINA RESULT:      -7.1      4.520      6.456
REMARK  Name = min_compound988.pdb
REMARK  7 active torsions:
REMARK  status: ('A' for Active; 'I' for Inactive)
REMARK    1  A    between atoms: _2  and  _21
REMARK    2  A    between atoms: _8  and  _14
REMARK    3  A    between atoms: _10  and  _12
REMARK    4  A    between atoms: _13  and  _14
REMARK    5  A    between atoms: _13  and  _17
REMARK    6  A    between atoms: _14  and  _15
REMARK    7  A    between atoms: _14  and  _16
REMARK                            x       y       z     vdW  Elec       q    Type
REMARK                         _______ _______ _______ _____ _____    ______ ____
ROOT
ATOM      1  O   UNL     1     -13.151   3.027 -19.179  0.00  0.00    -0.342 OA
ENDROOT
BRANCH   1   3
ATOM      2  N   UNL     1     -12.148   1.261 -18.174  0.00  0.00    -0.216 NA
ATOM      3  C   UNL     1     -12.276   2.605 -18.212  0.00  0.00    +0.248 A 
ATOM      4  C   UNL     1     -11.620   3.459 -17.310  0.00  0.00    +0.092 A 
ATOM      5  C   UNL     1     -10.770   2.935 -16.333  0.00  0.00    +0.035 A 
ATOM      6  C   UNL     1     -10.703   1.560 -16.247  0.00  0.00    -0.005 A 
ATOM      7  C   UNL     1     -10.052   0.700 -15.211  0.00  0.00    +0.039 C 
ATOM      8  C   UNL     1     -10.054  -0.669 -15.904  0.00  0.00    +0.011 C 
ATOM      9  C   UNL     1     -11.264  -0.679 -16.846  0.00  0.00    +0.056 C 
ATOM     10  C   UNL     1     -11.386   0.782 -17.176  0.00  0.00    +0.050 A 
BRANCH   5  11
ATOM     11  N   UNL     1     -10.235   3.760 -15.343  0.00  0.00    -0.358 N 
ATOM     12  H   UNL     1      -9.481   3.350 -14.799  0.00  0.00    +0.142 HD
ATOM     13  H   UNL     1     -10.923   4.219 -14.756  0.00  0.00    +0.142 HD
ENDBRANCH   5  11
ENDBRANCH   1   3
BRANCH   1  14
ATOM     14  S   UNL     1     -14.139   4.129 -18.935  0.00  0.00    -0.013 S 
BRANCH  14  15
ATOM     15  C   UNL     1     -13.035   5.329 -20.020  0.00  0.00    +0.098 A 
ATOM     16  C   UNL     1     -12.998   5.188 -21.416  0.00  0.00    +0.028 A 
ATOM     17  C   UNL     1     -12.219   6.063 -22.179  0.00  0.00    +0.005 A 
ATOM     18  C   UNL     1     -11.468   7.073 -21.564  0.00  0.00    -0.050 A 
ATOM     19  C   UNL     1     -10.683   8.045 -22.395  0.00  0.00    +0.044 C 
ATOM     20  C   UNL     1     -11.520   7.212 -20.171  0.00  0.00    +0.005 A 
ATOM     21  C   UNL     1     -12.292   6.342 -19.396  0.00  0.00    +0.028 A 
ENDBRANCH  14  15
BRANCH  14  22
ATOM     22  O   UNL     1     -14.991   3.470 -19.964  0.00  0.00    -0.263 OA
ATOM     23  H   UNL     1     -14.427   2.999 -20.596  0.00  0.00    +0.244 HD
ENDBRANCH  14  22
BRANCH  14  24
ATOM     24  O   UNL     1     -15.128   5.230 -18.692  0.00  0.00    -0.263 OA
ATOM     25  H   UNL     1     -15.686   5.344 -19.477  0.00  0.00    +0.244 HD
ENDBRANCH  14  24
ENDBRANCH   1  14
TORSDOF 6
ENDMDL
MODEL 4
REMARK VINA RESULT:      -7.0      2.246      6.542
REMARK  Name = min_compound988.pdb
REMARK  7 active torsions:
REMARK  status: ('A' for Active; 'I' for Inactive)
REMARK    1  A    between atoms: _2  and  _21
REMARK    2  A    between atoms: _8  and  _14
REMARK    3  A    between atoms: _10  and  _12
REMARK    4  A    between atoms: _13  and  _14
REMARK    5  A    between atoms: _13  and  _17
REMARK    6  A    between atoms: _14  and  _15
REMARK    7  A    between atoms: _14  and  _16
REMARK                            x       y       z     vdW  Elec       q    Type
REMARK                         _______ _______ _______ _____ _____    ______ ____
ROOT
ATOM      1  O   UNL     1     -13.773   3.918 -17.398  0.00  0.00    -0.342 OA
ENDROOT
BRANCH   1   3
ATOM      2  N   UNL     1     -14.329   4.304 -15.235  0.00  0.00    -0.216 NA
ATOM      3  C   UNL     1     -14.742   3.835 -16.433  0.00  0.00    +0.248 A 
ATOM      4  C   UNL     1     -16.012   3.270 -16.633  0.00  0.00    +0.092 A 
ATOM      5  C   UNL     1     -16.926   3.197 -15.578  0.00  0.00    +0.035 A 
ATOM      6  C   UNL     1     -16.473   3.605 -14.340  0.00  0.00    -0.005 A 
ATOM      7  C   UNL     1     -17.121   3.477 -12.999  0.00  0.00    +0.039 C 
ATOM      8  C   UNL     1     -16.263   4.427 -12.152  0.00  0.00    +0.011 C 
ATOM      9  C   UNL     1     -14.866   4.433 -12.785  0.00  0.00    +0.056 C 
ATOM     10  C   UNL     1     -15.198   4.149 -14.223  0.00  0.00    +0.050 A 
BRANCH   5  11
ATOM     11  N   UNL     1     -18.128   2.505 -15.729  0.00  0.00    -0.358 N 
ATOM     12  H   UNL     1     -18.038   1.547 -16.055  0.00  0.00    +0.142 HD
ATOM     13  H   UNL     1     -18.850   3.012 -16.231  0.00  0.00    +0.142 HD
ENDBRANCH   5  11
ENDBRANCH   1   3
BRANCH   1  14
ATOM     14  S   UNL     1     -12.455   4.591 -17.151  0.00  0.00    -0.013 S 
BRANCH  14  15
ATOM     15  C   UNL     1     -11.643   2.836 -16.841  0.00  0.00    +0.098 A 
ATOM     16  C   UNL     1     -11.766   1.819 -17.801  0.00  0.00    +0.028 A 
ATOM     17  C   UNL     1     -11.166   0.577 -17.573  0.00  0.00    +0.005 A 
ATOM     18  C   UNL     1     -10.450   0.334 -16.394  0.00  0.00    -0.050 A 
ATOM     19  C   UNL     1      -9.759  -0.981 -16.186  0.00  0.00    +0.044 C 
ATOM     20  C   UNL     1     -10.324   1.358 -15.447  0.00  0.00    +0.005 A 
ATOM     21  C   UNL     1     -10.922   2.604 -15.660  0.00  0.00    +0.028 A 
ENDBRANCH  14  15
BRANCH  14  22
ATOM     22  O   UNL     1     -12.350   4.729 -18.630  0.00  0.00    -0.263 OA
ATOM     23  H   UNL     1     -12.417   5.665 -18.873  0.00  0.00    +0.244 HD
ENDBRANCH  14  22
BRANCH  14  24
ATOM     24  O   UNL     1     -11.137   5.264 -16.904  0.00  0.00    -0.263 OA
ATOM     25  H   UNL     1     -10.417   4.640 -17.084  0.00  0.00    +0.244 HD
ENDBRANCH  14  24
ENDBRANCH   1  14
TORSDOF 6
ENDMDL
MODEL 5
REMARK VINA RESULT:      -7.0      2.035      6.777
REMARK  Name = min_compound988.pdb
REMARK  7 active torsions:
REMARK  status: ('A' for Active; 'I' for Inactive)
REMARK    1  A    between atoms: _2  and  _21
REMARK    2  A    between atoms: _8  and  _14
REMARK    3  A    between atoms: _10  and  _12
REMARK    4  A    between atoms: _13  and  _14
REMARK    5  A    between atoms: _13  and  _17
REMARK    6  A    between atoms: _14  and  _15
REMARK    7  A    between atoms: _14  and  _16
REMARK                            x       y       z     vdW  Elec       q    Type
REMARK                         _______ _______ _______ _____ _____    ______ ____
ROOT
ATOM      1  O   UNL     1     -14.682   2.968 -15.765  0.00  0.00    -0.342 OA
ENDROOT
BRANCH   1   3
ATOM      2  N   UNL     1     -14.788   3.969 -13.735  0.00  0.00    -0.216 NA
ATOM      3  C   UNL     1     -15.486   3.408 -14.746  0.00  0.00    +0.248 A 
ATOM      4  C   UNL     1     -16.881   3.248 -14.712  0.00  0.00    +0.092 A 
ATOM      5  C   UNL     1     -17.616   3.699 -13.612  0.00  0.00    +0.035 A 
ATOM      6  C   UNL     1     -16.893   4.199 -12.550  0.00  0.00    -0.005 A 
ATOM      7  C   UNL     1     -17.352   4.578 -11.178  0.00  0.00    +0.039 C 
ATOM      8  C   UNL     1     -16.143   5.365 -10.656  0.00  0.00    +0.011 C 
ATOM      9  C   UNL     1     -14.910   4.790 -11.364  0.00  0.00    +0.056 C 
ATOM     10  C   UNL     1     -15.511   4.322 -12.660  0.00  0.00    +0.050 A 
BRANCH   5  11
ATOM     11  N   UNL     1     -18.977   3.409 -13.504  0.00  0.00    -0.358 N 
ATOM     12  H   UNL     1     -19.229   2.442 -13.686  0.00  0.00    +0.142 HD
ATOM     13  H   UNL     1     -19.589   4.060 -13.985  0.00  0.00    +0.142 HD
ENDBRANCH   5  11
ENDBRANCH   1   3
BRANCH   1  14
ATOM     14  S   UNL     1     -13.615   3.832 -16.371  0.00  0.00    -0.013 S 
BRANCH  14  15
ATOM     15  C   UNL     1     -12.367   2.326 -16.262  0.00  0.00    +0.098 A 
ATOM     16  C   UNL     1     -12.663   1.114 -16.905  0.00  0.00    +0.028 A 
ATOM     17  C   UNL     1     -11.753   0.054 -16.833  0.00  0.00    +0.005 A 
ATOM     18  C   UNL     1     -10.556   0.186 -16.119  0.00  0.00    -0.050 A 
ATOM     19  C   UNL     1      -9.559  -0.935 -16.099  0.00  0.00    +0.044 C 
ATOM     20  C   UNL     1     -10.265   1.403 -15.490  0.00  0.00    +0.005 A 
ATOM     21  C   UNL     1     -11.167   2.470 -15.551  0.00  0.00    +0.028 A 
ENDBRANCH  14  15
BRANCH  14  22
ATOM     22  O   UNL     1     -14.287   3.589 -17.677  0.00  0.00    -0.263 OA
ATOM     23  H   UNL     1     -14.640   2.686 -17.696  0.00  0.00    +0.244 HD
ENDBRANCH  14  22
BRANCH  14  24
ATOM     24  O   UNL     1     -12.549   4.695 -16.976  0.00  0.00    -0.263 OA
ATOM     25  H   UNL     1     -12.958   5.358 -17.554  0.00  0.00    +0.244 HD
ENDBRANCH  14  24
ENDBRANCH   1  14
TORSDOF 6
ENDMDL
MODEL 6
REMARK VINA RESULT:      -7.0      3.874      6.225
REMARK  Name = min_compound988.pdb
REMARK  7 active torsions:
REMARK  status: ('A' for Active; 'I' for Inactive)
REMARK    1  A    between atoms: _2  and  _21
REMARK    2  A    between atoms: _8  and  _14
REMARK    3  A    between atoms: _10  and  _12
REMARK    4  A    between atoms: _13  and  _14
REMARK    5  A    between atoms: _13  and  _17
REMARK    6  A    between atoms: _14  and  _15
REMARK    7  A    between atoms: _14  and  _16
REMARK                            x       y       z     vdW  Elec       q    Type
REMARK                         _______ _______ _______ _____ _____    ______ ____
ROOT
ATOM      1  O   UNL     1     -13.249   4.214 -16.719  0.00  0.00    -0.342 OA
ENDROOT
BRANCH   1   3
ATOM      2  N   UNL     1     -12.262   5.575 -18.239  0.00  0.00    -0.216 NA
ATOM      3  C   UNL     1     -13.105   4.538 -18.043  0.00  0.00    +0.248 A 
ATOM      4  C   UNL     1     -13.798   3.910 -19.092  0.00  0.00    +0.092 A 
ATOM      5  C   UNL     1     -13.612   4.331 -20.411  0.00  0.00    +0.035 A 
ATOM      6  C   UNL     1     -12.812   5.439 -20.599  0.00  0.00    -0.005 A 
ATOM      7  C   UNL     1     -12.571   6.241 -21.837  0.00  0.00    +0.039 C 
ATOM      8  C   UNL     1     -11.346   7.071 -21.430  0.00  0.00    +0.011 C 
ATOM      9  C   UNL     1     -11.429   7.255 -19.910  0.00  0.00    +0.056 C 
ATOM     10  C   UNL     1     -12.164   6.007 -19.507  0.00  0.00    +0.050 A 
BRANCH   5  11
ATOM     11  N   UNL     1     -14.405   3.814 -21.437  0.00  0.00    -0.358 N 
ATOM     12  H   UNL     1     -14.851   2.924 -21.233  0.00  0.00    +0.142 HD
ATOM     13  H   UNL     1     -13.971   3.822 -22.354  0.00  0.00    +0.142 HD
ENDBRANCH   5  11
ENDBRANCH   1   3
BRANCH   1  14
ATOM     14  S   UNL     1     -14.179   3.131 -16.258  0.00  0.00    -0.013 S 
BRANCH  14  15
ATOM     15  C   UNL     1     -12.670   1.883 -16.222  0.00  0.00    +0.098 A 
ATOM     16  C   UNL     1     -11.437   2.279 -15.681  0.00  0.00    +0.028 A 
ATOM     17  C   UNL     1     -10.374   1.371 -15.646  0.00  0.00    +0.005 A 
ATOM     18  C   UNL     1     -10.525   0.074 -16.152  0.00  0.00    -0.050 A 
ATOM     19  C   UNL     1      -9.398  -0.912 -16.054  0.00  0.00    +0.044 C 
ATOM     20  C   UNL     1     -11.762  -0.315 -16.680  0.00  0.00    +0.005 A 
ATOM     21  C   UNL     1     -12.832   0.583 -16.725  0.00  0.00    +0.028 A 
ENDBRANCH  14  15
BRANCH  14  22
ATOM     22  O   UNL     1     -14.099   3.760 -14.911  0.00  0.00    -0.263 OA
ATOM     23  H   UNL     1     -14.124   4.725 -15.003  0.00  0.00    +0.244 HD
ENDBRANCH  14  22
BRANCH  14  24
ATOM     24  O   UNL     1     -15.109   2.048 -15.798  0.00  0.00    -0.263 OA
ATOM     25  H   UNL     1     -15.216   1.391 -16.504  0.00  0.00    +0.244 HD
ENDBRANCH  14  24
ENDBRANCH   1  14
TORSDOF 6
ENDMDL
MODEL 7
REMARK VINA RESULT:      -6.9      5.863      8.867
REMARK  Name = min_compound988.pdb
REMARK  7 active torsions:
REMARK  status: ('A' for Active; 'I' for Inactive)
REMARK    1  A    between atoms: _2  and  _21
REMARK    2  A    between atoms: _8  and  _14
REMARK    3  A    between atoms: _10  and  _12
REMARK    4  A    between atoms: _13  and  _14
REMARK    5  A    between atoms: _13  and  _17
REMARK    6  A    between atoms: _14  and  _15
REMARK    7  A    between atoms: _14  and  _16
REMARK                            x       y       z     vdW  Elec       q    Type
REMARK                         _______ _______ _______ _____ _____    ______ ____
ROOT
ATOM      1  O   UNL     1     -17.182   1.547  -8.538  0.00  0.00    -0.342 OA
ENDROOT
BRANCH   1   3
ATOM      2  N   UNL     1     -16.285   2.001  -6.507  0.00  0.00    -0.216 NA
ATOM      3  C   UNL     1     -16.482   1.066  -7.463  0.00  0.00    +0.248 A 
ATOM      4  C   UNL     1     -15.964  -0.237  -7.373  0.00  0.00    +0.092 A 
ATOM      5  C   UNL     1     -15.232  -0.629  -6.249  0.00  0.00    +0.035 A 
ATOM      6  C   UNL     1     -14.966   0.349  -5.313  0.00  0.00    -0.005 A 
ATOM      7  C   UNL     1     -14.067   0.308  -4.120  0.00  0.00    +0.039 C 
ATOM      8  C   UNL     1     -14.512   1.562  -3.356  0.00  0.00    +0.011 C 
ATOM      9  C   UNL     1     -15.022   2.555  -4.408  0.00  0.00    +0.056 C 
ATOM     10  C   UNL     1     -15.512   1.619  -5.477  0.00  0.00    +0.050 A 
BRANCH   5  11
ATOM     11  N   UNL     1     -14.590  -1.867  -6.220  0.00  0.00    -0.358 N 
ATOM     12  H   UNL     1     -15.205  -2.675  -6.277  0.00  0.00    +0.142 HD
ATOM     13  H   UNL     1     -13.895  -1.969  -5.487  0.00  0.00    +0.142 HD
ENDBRANCH   5  11
ENDBRANCH   1   3
BRANCH   1  14
ATOM     14  S   UNL     1     -17.918   2.854  -8.493  0.00  0.00    -0.013 S 
BRANCH  14  15
ATOM     15  C   UNL     1     -17.000   3.400 -10.135  0.00  0.00    +0.098 A 
ATOM     16  C   UNL     1     -17.496   3.007 -11.388  0.00  0.00    +0.028 A 
ATOM     17  C   UNL     1     -16.840   3.421 -12.551  0.00  0.00    +0.005 A 
ATOM     18  C   UNL     1     -15.689   4.215 -12.480  0.00  0.00    -0.050 A 
ATOM     19  C   UNL     1     -15.028   4.703 -13.735  0.00  0.00    +0.044 C 
ATOM     20  C   UNL     1     -15.208   4.610 -11.226  0.00  0.00    +0.005 A 
ATOM     21  C   UNL     1     -15.851   4.202 -10.054  0.00  0.00    +0.028 A 
ENDBRANCH  14  15
BRANCH  14  22
ATOM     22  O   UNL     1     -19.092   2.108  -9.023  0.00  0.00    -0.263 OA
ATOM     23  H   UNL     1     -19.090   2.149  -9.992  0.00  0.00    +0.244 HD
ENDBRANCH  14  22
BRANCH  14  24
ATOM     24  O   UNL     1     -18.653   4.160  -8.448  0.00  0.00    -0.263 OA
ATOM     25  H   UNL     1     -18.015   4.891  -8.461  0.00  0.00    +0.244 HD
ENDBRANCH  14  24
ENDBRANCH   1  14
TORSDOF 6
ENDMDL
MODEL 8
REMARK VINA RESULT:      -6.9      3.178      6.880
REMARK  Name = min_compound988.pdb
REMARK  7 active torsions:
REMARK  status: ('A' for Active; 'I' for Inactive)
REMARK    1  A    between atoms: _2  and  _21
REMARK    2  A    between atoms: _8  and  _14
REMARK    3  A    between atoms: _10  and  _12
REMARK    4  A    between atoms: _13  and  _14
REMARK    5  A    between atoms: _13  and  _17
REMARK    6  A    between atoms: _14  and  _15
REMARK    7  A    between atoms: _14  and  _16
REMARK                            x       y       z     vdW  Elec       q    Type
REMARK                         _______ _______ _______ _____ _____    ______ ____
ROOT
ATOM      1  O   UNL     1     -13.948   3.769 -16.114  0.00  0.00    -0.342 OA
ENDROOT
BRANCH   1   3
ATOM      2  N   UNL     1     -14.573   5.915 -16.489  0.00  0.00    -0.216 NA
ATOM      3  C   UNL     1     -14.597   4.874 -15.628  0.00  0.00    +0.248 A 
ATOM      4  C   UNL     1     -15.177   4.955 -14.351  0.00  0.00    +0.092 A 
ATOM      5  C   UNL     1     -15.789   6.137 -13.928  0.00  0.00    +0.035 A 
ATOM      6  C   UNL     1     -15.695   7.219 -14.778  0.00  0.00    -0.005 A 
ATOM      7  C   UNL     1     -16.066   8.649 -14.545  0.00  0.00    +0.039 C 
ATOM      8  C   UNL     1     -16.036   9.209 -15.973  0.00  0.00    +0.011 C 
ATOM      9  C   UNL     1     -15.009   8.374 -16.748  0.00  0.00    +0.056 C 
ATOM     10  C   UNL     1     -15.100   7.060 -16.025  0.00  0.00    +0.050 A 
BRANCH   5  11
ATOM     11  N   UNL     1     -16.233   6.273 -12.612  0.00  0.00    -0.358 N 
ATOM     12  H   UNL     1     -15.801   7.027 -12.085  0.00  0.00    +0.142 HD
ATOM     13  H   UNL     1     -16.264   5.407 -12.083  0.00  0.00    +0.142 HD
ENDBRANCH   5  11
ENDBRANCH   1   3
BRANCH   1  14
ATOM     14  S   UNL     1     -13.454   3.690 -17.527  0.00  0.00    -0.013 S 
BRANCH  14  15
ATOM     15  C   UNL     1     -12.261   2.227 -17.005  0.00  0.00    +0.098 A 
ATOM     16  C   UNL     1     -12.280   1.012 -17.708  0.00  0.00    +0.028 A 
ATOM     17  C   UNL     1     -11.410  -0.016 -17.334  0.00  0.00    +0.005 A 
ATOM     18  C   UNL     1     -10.526   0.149 -16.260  0.00  0.00    -0.050 A 
ATOM     19  C   UNL     1      -9.555  -0.938 -15.905  0.00  0.00    +0.044 C 
ATOM     20  C   UNL     1     -10.508   1.368 -15.571  0.00  0.00    +0.005 A 
ATOM     21  C   UNL     1     -11.375   2.404 -15.932  0.00  0.00    +0.028 A 
ENDBRANCH  14  15
BRANCH  14  22
ATOM     22  O   UNL     1     -14.719   2.969 -17.835  0.00  0.00    -0.263 OA
ATOM     23  H   UNL     1     -15.420   3.278 -17.240  0.00  0.00    +0.244 HD
ENDBRANCH  14  22
BRANCH  14  24
ATOM     24  O   UNL     1     -12.959   3.611 -18.941  0.00  0.00    -0.263 OA
ATOM     25  H   UNL     1     -13.483   4.206 -19.501  0.00  0.00    +0.244 HD
ENDBRANCH  14  24
ENDBRANCH   1  14
TORSDOF 6
ENDMDL
MODEL 9
REMARK VINA RESULT:      -6.9      2.128      2.695
REMARK  Name = min_compound988.pdb
REMARK  7 active torsions:
REMARK  status: ('A' for Active; 'I' for Inactive)
REMARK    1  A    between atoms: _2  and  _21
REMARK    2  A    between atoms: _8  and  _14
REMARK    3  A    between atoms: _10  and  _12
REMARK    4  A    between atoms: _13  and  _14
REMARK    5  A    between atoms: _13  and  _17
REMARK    6  A    between atoms: _14  and  _15
REMARK    7  A    between atoms: _14  and  _16
REMARK                            x       y       z     vdW  Elec       q    Type
REMARK                         _______ _______ _______ _____ _____    ______ ____
ROOT
ATOM      1  O   UNL     1     -14.853   3.311 -16.284  0.00  0.00    -0.342 OA
ENDROOT
BRANCH   1   3
ATOM      2  N   UNL     1     -13.479   1.529 -16.553  0.00  0.00    -0.216 NA
ATOM      3  C   UNL     1     -13.566   2.842 -16.248  0.00  0.00    +0.248 A 
ATOM      4  C   UNL     1     -12.453   3.613 -15.876  0.00  0.00    +0.092 A 
ATOM      5  C   UNL     1     -11.179   3.040 -15.834  0.00  0.00    +0.035 A 
ATOM      6  C   UNL     1     -11.106   1.683 -16.070  0.00  0.00    -0.005 A 
ATOM      7  C   UNL     1      -9.948   0.749 -15.914  0.00  0.00    +0.039 C 
ATOM      8  C   UNL     1     -10.451  -0.491 -16.665  0.00  0.00    +0.011 C 
ATOM      9  C   UNL     1     -11.980  -0.486 -16.541  0.00  0.00    +0.056 C 
ATOM     10  C   UNL     1     -12.256   0.987 -16.428  0.00  0.00    +0.050 A 
BRANCH   5  11
ATOM     11  N   UNL     1     -10.096   3.757 -15.324  0.00  0.00    -0.358 N 
ATOM     12  H   UNL     1     -10.173   4.019 -14.345  0.00  0.00    +0.142 HD
ATOM     13  H   UNL     1      -9.789   4.531 -15.903  0.00  0.00    +0.142 HD
ENDBRANCH   5  11
ENDBRANCH   1   3
BRANCH   1  14
ATOM     14  S   UNL     1     -15.786   3.178 -15.117  0.00  0.00    -0.013 S 
BRANCH  14  15
ATOM     15  C   UNL     1     -15.846   5.130 -14.972  0.00  0.00    +0.098 A 
ATOM     16  C   UNL     1     -15.394   5.933 -16.031  0.00  0.00    +0.028 A 
ATOM     17  C   UNL     1     -15.460   7.325 -15.919  0.00  0.00    +0.005 A 
ATOM     18  C   UNL     1     -15.964   7.927 -14.759  0.00  0.00    -0.050 A 
ATOM     19  C   UNL     1     -16.087   9.420 -14.673  0.00  0.00    +0.044 C 
ATOM     20  C   UNL     1     -16.422   7.117 -13.712  0.00  0.00    +0.005 A 
ATOM     21  C   UNL     1     -16.358   5.724 -13.808  0.00  0.00    +0.028 A 
ENDBRANCH  14  15
BRANCH  14  22
ATOM     22  O   UNL     1     -16.855   2.904 -16.117  0.00  0.00    -0.263 OA
ATOM     23  H   UNL     1     -16.604   2.138 -16.656  0.00  0.00    +0.244 HD
ENDBRANCH  14  22
BRANCH  14  24
ATOM     24  O   UNL     1     -16.718   3.045 -13.949  0.00  0.00    -0.263 OA
ATOM     25  H   UNL     1     -16.550   3.761 -13.317  0.00  0.00    +0.244 HD
ENDBRANCH  14  24
ENDBRANCH   1  14
TORSDOF 6
ENDMDL
