MODEL 1
REMARK VINA RESULT:      -8.0      0.000      0.000
REMARK  Name = min_compound953.pdb
REMARK  4 active torsions:
REMARK  status: ('A' for Active; 'I' for Inactive)
REMARK    1  A    between atoms: _5  and  _14
REMARK    2  A    between atoms: _5  and  _15
REMARK    3  A    between atoms: _6  and  _13
REMARK    4  A    between atoms: _12  and  _16
REMARK                            x       y       z     vdW  Elec       q    Type
REMARK                         _______ _______ _______ _____ _____    ______ ____
ROOT
ATOM      1  C   UNL     1     -11.026   3.826 -16.082  0.00  0.00    +0.304 C 
ATOM      2  O   UNL     1     -12.284   3.726 -16.587  0.00  0.00    -0.436 OA
ATOM      3  C   UNL     1     -12.403   4.897 -17.389  0.00  0.00    +0.222 C 
ATOM      4  C   UNL     1     -13.565   5.721 -16.921  0.00  0.00    +0.214 C 
ATOM      5  C   UNL     1     -14.469   6.407 -17.928  0.00  0.00    +0.099 C 
ATOM      6  C   UNL     1     -15.165   7.665 -17.531  0.00  0.00    +0.044 C 
ATOM      7  C   UNL     1     -14.377   6.102 -19.401  0.00  0.00    +0.044 C 
ATOM      8  C   UNL     1     -13.006   5.553 -19.844  0.00  0.00    -0.027 C 
ATOM      9  C   UNL     1     -11.997   6.708 -19.974  0.00  0.00    +0.011 C 
ATOM     10  C   UNL     1     -13.156   4.907 -21.238  0.00  0.00    +0.011 C 
ATOM     11  O   UNL     1     -14.898   5.248 -17.184  0.00  0.00    -0.359 OA
ATOM     12  C   UNL     1     -12.528   4.459 -18.858  0.00  0.00    +0.079 C 
ATOM     13  N   UNL     1     -11.160   5.663 -17.158  0.00  0.00    -0.222 N 
ATOM     14  H   UNL     1     -10.943   6.550 -17.525  0.00  0.00    +0.172 HD
ATOM     15  N   UNL     1     -10.377   4.915 -16.345  0.00  0.00    -0.131 NA
ATOM     16  N   UNL     1     -10.597   2.825 -15.314  0.00  0.00    -0.268 N 
ATOM     17  H   UNL     1     -10.471   2.942 -14.345  0.00  0.00    +0.157 HD
ENDROOT
BRANCH  16  18
ATOM     18  C   UNL     1     -10.338   1.631 -15.920  0.00  0.00    +0.035 A 
ATOM     19  C   UNL     1     -10.062   1.473 -17.291  0.00  0.00    +0.023 A 
ATOM     20  C   UNL     1      -9.777   0.225 -17.853  0.00  0.00    +0.002 A 
ATOM     21  C   UNL     1      -9.750  -0.911 -17.049  0.00  0.00    +0.000 A 
ATOM     22  C   UNL     1     -10.007  -0.788 -15.686  0.00  0.00    +0.002 A 
ATOM     23  C   UNL     1     -10.292   0.468 -15.135  0.00  0.00    +0.023 A 
ENDBRANCH  16  18
TORSDOF 1
ENDMDL
MODEL 2
REMARK VINA RESULT:      -7.6      4.332      6.166
REMARK  Name = min_compound953.pdb
REMARK  4 active torsions:
REMARK  status: ('A' for Active; 'I' for Inactive)
REMARK    1  A    between atoms: _5  and  _14
REMARK    2  A    between atoms: _5  and  _15
REMARK    3  A    between atoms: _6  and  _13
REMARK    4  A    between atoms: _12  and  _16
REMARK                            x       y       z     vdW  Elec       q    Type
REMARK                         _______ _______ _______ _____ _____    ______ ____
ROOT
ATOM      1  C   UNL     1     -15.899   3.934 -15.095  0.00  0.00    +0.304 C 
ATOM      2  O   UNL     1     -14.966   2.953 -15.209  0.00  0.00    -0.436 OA
ATOM      3  C   UNL     1     -14.074   3.469 -16.192  0.00  0.00    +0.222 C 
ATOM      4  C   UNL     1     -13.986   2.522 -17.350  0.00  0.00    +0.214 C 
ATOM      5  C   UNL     1     -12.652   2.262 -18.024  0.00  0.00    +0.099 C 
ATOM      6  C   UNL     1     -12.636   1.884 -19.468  0.00  0.00    +0.044 C 
ATOM      7  C   UNL     1     -11.359   2.750 -17.423  0.00  0.00    +0.044 C 
ATOM      8  C   UNL     1     -11.524   3.958 -16.478  0.00  0.00    -0.027 C 
ATOM      9  C   UNL     1     -11.680   5.249 -17.302  0.00  0.00    +0.011 C 
ATOM     10  C   UNL     1     -10.244   4.101 -15.627  0.00  0.00    +0.011 C 
ATOM     11  O   UNL     1     -13.282   1.280 -17.176  0.00  0.00    -0.359 OA
ATOM     12  C   UNL     1     -12.715   3.722 -15.516  0.00  0.00    +0.079 C 
ATOM     13  N   UNL     1     -14.687   4.729 -16.659  0.00  0.00    -0.222 N 
ATOM     14  H   UNL     1     -14.349   5.314 -17.376  0.00  0.00    +0.172 HD
ATOM     15  N   UNL     1     -15.802   4.929 -15.918  0.00  0.00    -0.131 NA
ATOM     16  N   UNL     1     -16.862   3.756 -14.191  0.00  0.00    -0.268 N 
ATOM     17  H   UNL     1     -17.791   3.577 -14.462  0.00  0.00    +0.157 HD
ENDROOT
BRANCH  16  18
ATOM     18  C   UNL     1     -16.514   3.833 -12.874  0.00  0.00    +0.035 A 
ATOM     19  C   UNL     1     -15.495   4.660 -12.364  0.00  0.00    +0.023 A 
ATOM     20  C   UNL     1     -15.200   4.718 -10.998  0.00  0.00    +0.002 A 
ATOM     21  C   UNL     1     -15.929   3.950 -10.095  0.00  0.00    +0.000 A 
ATOM     22  C   UNL     1     -16.952   3.131 -10.565  0.00  0.00    +0.002 A 
ATOM     23  C   UNL     1     -17.238   3.081 -11.936  0.00  0.00    +0.023 A 
ENDBRANCH  16  18
TORSDOF 1
ENDMDL
MODEL 3
REMARK VINA RESULT:      -7.5      1.929      2.191
REMARK  Name = min_compound953.pdb
REMARK  4 active torsions:
REMARK  status: ('A' for Active; 'I' for Inactive)
REMARK    1  A    between atoms: _5  and  _14
REMARK    2  A    between atoms: _5  and  _15
REMARK    3  A    between atoms: _6  and  _13
REMARK    4  A    between atoms: _12  and  _16
REMARK                            x       y       z     vdW  Elec       q    Type
REMARK                         _______ _______ _______ _____ _____    ______ ____
ROOT
ATOM      1  C   UNL     1     -13.436   2.684 -16.702  0.00  0.00    +0.304 C 
ATOM      2  O   UNL     1     -13.630   2.919 -18.026  0.00  0.00    -0.436 OA
ATOM      3  C   UNL     1     -13.847   4.326 -18.075  0.00  0.00    +0.222 C 
ATOM      4  C   UNL     1     -15.183   4.617 -18.689  0.00  0.00    +0.214 C 
ATOM      5  C   UNL     1     -15.346   5.779 -19.649  0.00  0.00    +0.099 C 
ATOM      6  C   UNL     1     -16.674   6.452 -19.749  0.00  0.00    +0.044 C 
ATOM      7  C   UNL     1     -14.152   6.524 -20.191  0.00  0.00    +0.044 C 
ATOM      8  C   UNL     1     -12.895   6.427 -19.301  0.00  0.00    -0.027 C 
ATOM      9  C   UNL     1     -13.020   7.399 -18.114  0.00  0.00    +0.011 C 
ATOM     10  C   UNL     1     -11.666   6.857 -20.129  0.00  0.00    +0.011 C 
ATOM     11  O   UNL     1     -15.353   4.410 -20.103  0.00  0.00    -0.359 OA
ATOM     12  C   UNL     1     -12.678   4.962 -18.846  0.00  0.00    +0.079 C 
ATOM     13  N   UNL     1     -13.871   4.771 -16.666  0.00  0.00    -0.222 N 
ATOM     14  H   UNL     1     -14.049   5.684 -16.344  0.00  0.00    +0.172 HD
ATOM     15  N   UNL     1     -13.600   3.687 -15.901  0.00  0.00    -0.131 NA
ATOM     16  N   UNL     1     -13.151   1.432 -16.342  0.00  0.00    -0.268 N 
ATOM     17  H   UNL     1     -13.801   0.884 -15.846  0.00  0.00    +0.157 HD
ENDROOT
BRANCH  16  18
ATOM     18  C   UNL     1     -11.927   0.938 -16.686  0.00  0.00    +0.035 A 
ATOM     19  C   UNL     1     -10.855   1.718 -17.158  0.00  0.00    +0.023 A 
ATOM     20  C   UNL     1      -9.611   1.159 -17.469  0.00  0.00    +0.002 A 
ATOM     21  C   UNL     1      -9.401  -0.206 -17.307  0.00  0.00    +0.000 A 
ATOM     22  C   UNL     1     -10.437  -1.004 -16.830  0.00  0.00    +0.002 A 
ATOM     23  C   UNL     1     -11.679  -0.433 -16.521  0.00  0.00    +0.023 A 
ENDBRANCH  16  18
TORSDOF 1
ENDMDL
MODEL 4
REMARK VINA RESULT:      -7.4      3.371      4.487
REMARK  Name = min_compound953.pdb
REMARK  4 active torsions:
REMARK  status: ('A' for Active; 'I' for Inactive)
REMARK    1  A    between atoms: _5  and  _14
REMARK    2  A    between atoms: _5  and  _15
REMARK    3  A    between atoms: _6  and  _13
REMARK    4  A    between atoms: _12  and  _16
REMARK                            x       y       z     vdW  Elec       q    Type
REMARK                         _______ _______ _______ _____ _____    ______ ____
ROOT
ATOM      1  C   UNL     1     -13.692   3.309 -17.542  0.00  0.00    +0.304 C 
ATOM      2  O   UNL     1     -13.784   4.000 -16.376  0.00  0.00    -0.436 OA
ATOM      3  C   UNL     1     -15.189   4.096 -16.168  0.00  0.00    +0.222 C 
ATOM      4  C   UNL     1     -15.596   5.536 -16.074  0.00  0.00    +0.214 C 
ATOM      5  C   UNL     1     -16.639   5.970 -15.063  0.00  0.00    +0.099 C 
ATOM      6  C   UNL     1     -17.483   7.163 -15.365  0.00  0.00    +0.044 C 
ATOM      7  C   UNL     1     -17.121   5.037 -13.981  0.00  0.00    +0.044 C 
ATOM      8  C   UNL     1     -16.952   3.542 -14.322  0.00  0.00    -0.027 C 
ATOM      9  C   UNL     1     -18.074   3.093 -15.274  0.00  0.00    +0.011 C 
ATOM     10  C   UNL     1     -17.086   2.719 -13.022  0.00  0.00    +0.011 C 
ATOM     11  O   UNL     1     -15.240   6.279 -14.895  0.00  0.00    -0.359 OA
ATOM     12  C   UNL     1     -15.541   3.288 -14.907  0.00  0.00    +0.079 C 
ATOM     13  N   UNL     1     -15.808   3.510 -17.375  0.00  0.00    -0.222 N 
ATOM     14  H   UNL     1     -16.771   3.464 -17.575  0.00  0.00    +0.172 HD
ATOM     15  N   UNL     1     -14.802   3.049 -18.155  0.00  0.00    -0.131 NA
ATOM     16  N   UNL     1     -12.468   3.013 -17.979  0.00  0.00    -0.268 N 
ATOM     17  H   UNL     1     -12.090   3.451 -18.775  0.00  0.00    +0.157 HD
ENDROOT
BRANCH  16  18
ATOM     18  C   UNL     1     -11.757   2.079 -17.283  0.00  0.00    +0.035 A 
ATOM     19  C   UNL     1     -10.953   2.358 -16.163  0.00  0.00    +0.023 A 
ATOM     20  C   UNL     1     -10.268   1.354 -15.471  0.00  0.00    +0.002 A 
ATOM     21  C   UNL     1     -10.378   0.028 -15.879  0.00  0.00    +0.000 A 
ATOM     22  C   UNL     1     -11.175  -0.284 -16.977  0.00  0.00    +0.002 A 
ATOM     23  C   UNL     1     -11.857   0.731 -17.662  0.00  0.00    +0.023 A 
ENDBRANCH  16  18
TORSDOF 1
ENDMDL
MODEL 5
REMARK VINA RESULT:      -7.2      4.538      6.181
REMARK  Name = min_compound953.pdb
REMARK  4 active torsions:
REMARK  status: ('A' for Active; 'I' for Inactive)
REMARK    1  A    between atoms: _5  and  _14
REMARK    2  A    between atoms: _5  and  _15
REMARK    3  A    between atoms: _6  and  _13
REMARK    4  A    between atoms: _12  and  _16
REMARK                            x       y       z     vdW  Elec       q    Type
REMARK                         _______ _______ _______ _____ _____    ______ ____
ROOT
ATOM      1  C   UNL     1     -15.103   4.580 -15.965  0.00  0.00    +0.304 C 
ATOM      2  O   UNL     1     -14.988   5.457 -14.934  0.00  0.00    -0.436 OA
ATOM      3  C   UNL     1     -16.067   5.093 -14.079  0.00  0.00    +0.222 C 
ATOM      4  C   UNL     1     -16.973   6.268 -13.870  0.00  0.00    +0.214 C 
ATOM      5  C   UNL     1     -17.572   6.537 -12.503  0.00  0.00    +0.099 C 
ATOM      6  C   UNL     1     -18.888   7.236 -12.417  0.00  0.00    +0.044 C 
ATOM      7  C   UNL     1     -17.105   5.790 -11.280  0.00  0.00    +0.044 C 
ATOM      8  C   UNL     1     -16.467   4.419 -11.587  0.00  0.00    -0.027 C 
ATOM      9  C   UNL     1     -17.569   3.379 -11.858  0.00  0.00    +0.011 C 
ATOM     10  C   UNL     1     -15.677   3.949 -10.347  0.00  0.00    +0.011 C 
ATOM     11  O   UNL     1     -16.516   7.355 -13.046  0.00  0.00    -0.359 OA
ATOM     12  C   UNL     1     -15.474   4.549 -12.768  0.00  0.00    +0.079 C 
ATOM     13  N   UNL     1     -16.813   4.047 -14.809  0.00  0.00    -0.222 N 
ATOM     14  H   UNL     1     -17.647   3.613 -14.517  0.00  0.00    +0.172 HD
ATOM     15  N   UNL     1     -16.135   3.798 -15.954  0.00  0.00    -0.131 NA
ATOM     16  N   UNL     1     -14.179   4.642 -16.924  0.00  0.00    -0.268 N 
ATOM     17  H   UNL     1     -14.398   4.976 -17.824  0.00  0.00    +0.157 HD
ENDROOT
BRANCH  16  18
ATOM     18  C   UNL     1     -12.918   4.225 -16.613  0.00  0.00    +0.035 A 
ATOM     19  C   UNL     1     -11.742   4.933 -16.925  0.00  0.00    +0.023 A 
ATOM     20  C   UNL     1     -10.475   4.469 -16.556  0.00  0.00    +0.002 A 
ATOM     21  C   UNL     1     -10.349   3.277 -15.849  0.00  0.00    +0.000 A 
ATOM     22  C   UNL     1     -11.493   2.558 -15.514  0.00  0.00    +0.002 A 
ATOM     23  C   UNL     1     -12.757   3.033 -15.890  0.00  0.00    +0.023 A 
ENDBRANCH  16  18
TORSDOF 1
ENDMDL
MODEL 6
REMARK VINA RESULT:      -7.2      8.959     11.397
REMARK  Name = min_compound953.pdb
REMARK  4 active torsions:
REMARK  status: ('A' for Active; 'I' for Inactive)
REMARK    1  A    between atoms: _5  and  _14
REMARK    2  A    between atoms: _5  and  _15
REMARK    3  A    between atoms: _6  and  _13
REMARK    4  A    between atoms: _12  and  _16
REMARK                            x       y       z     vdW  Elec       q    Type
REMARK                         _______ _______ _______ _____ _____    ______ ____
ROOT
ATOM      1  C   UNL     1     -16.572   3.654  -9.028  0.00  0.00    +0.304 C 
ATOM      2  O   UNL     1     -15.594   2.750  -8.758  0.00  0.00    -0.436 OA
ATOM      3  C   UNL     1     -16.188   1.920  -7.765  0.00  0.00    +0.222 C 
ATOM      4  C   UNL     1     -15.353   1.932  -6.520  0.00  0.00    +0.214 C 
ATOM      5  C   UNL     1     -15.140   0.655  -5.731  0.00  0.00    +0.099 C 
ATOM      6  C   UNL     1     -14.899   0.748  -4.261  0.00  0.00    +0.044 C 
ATOM      7  C   UNL     1     -15.553  -0.686  -6.280  0.00  0.00    +0.044 C 
ATOM      8  C   UNL     1     -16.669  -0.612  -7.342  0.00  0.00    -0.027 C 
ATOM      9  C   UNL     1     -18.033  -0.424  -6.654  0.00  0.00    +0.011 C 
ATOM     10  C   UNL     1     -16.715  -1.952  -8.109  0.00  0.00    +0.011 C 
ATOM     11  O   UNL     1     -14.091   1.242  -6.528  0.00  0.00    -0.359 OA
ATOM     12  C   UNL     1     -16.360   0.512  -8.361  0.00  0.00    +0.079 C 
ATOM     13  N   UNL     1     -17.495   2.540  -7.461  0.00  0.00    -0.222 N 
ATOM     14  H   UNL     1     -18.139   2.242  -6.780  0.00  0.00    +0.172 HD
ATOM     15  N   UNL     1     -17.638   3.596  -8.296  0.00  0.00    -0.131 NA
ATOM     16  N   UNL     1     -16.323   4.554  -9.980  0.00  0.00    -0.268 N 
ATOM     17  H   UNL     1     -16.181   5.503  -9.760  0.00  0.00    +0.157 HD
ENDROOT
BRANCH  16  18
ATOM     18  C   UNL     1     -16.271   4.112 -11.269  0.00  0.00    +0.035 A 
ATOM     19  C   UNL     1     -17.182   3.204 -11.839  0.00  0.00    +0.023 A 
ATOM     20  C   UNL     1     -17.096   2.807 -13.178  0.00  0.00    +0.002 A 
ATOM     21  C   UNL     1     -16.092   3.320 -13.993  0.00  0.00    +0.000 A 
ATOM     22  C   UNL     1     -15.182   4.231 -13.463  0.00  0.00    +0.002 A 
ATOM     23  C   UNL     1     -15.278   4.621 -12.121  0.00  0.00    +0.023 A 
ENDBRANCH  16  18
TORSDOF 1
ENDMDL
MODEL 7
REMARK VINA RESULT:      -7.0     13.273     16.201
REMARK  Name = min_compound953.pdb
REMARK  4 active torsions:
REMARK  status: ('A' for Active; 'I' for Inactive)
REMARK    1  A    between atoms: _5  and  _14
REMARK    2  A    between atoms: _5  and  _15
REMARK    3  A    between atoms: _6  and  _13
REMARK    4  A    between atoms: _12  and  _16
REMARK                            x       y       z     vdW  Elec       q    Type
REMARK                         _______ _______ _______ _____ _____    ______ ____
ROOT
ATOM      1  C   UNL     1     -14.116  -0.769  -4.418  0.00  0.00    +0.304 C 
ATOM      2  O   UNL     1     -14.626  -2.025  -4.326  0.00  0.00    -0.436 OA
ATOM      3  C   UNL     1     -14.973  -2.131  -2.949  0.00  0.00    +0.222 C 
ATOM      4  C   UNL     1     -14.250  -3.288  -2.326  0.00  0.00    +0.214 C 
ATOM      5  C   UNL     1     -14.958  -4.182  -1.327  0.00  0.00    +0.099 C 
ATOM      6  C   UNL     1     -14.151  -4.869  -0.276  0.00  0.00    +0.044 C 
ATOM      7  C   UNL     1     -16.446  -4.088  -1.104  0.00  0.00    +0.044 C 
ATOM      8  C   UNL     1     -17.052  -2.719  -1.480  0.00  0.00    -0.027 C 
ATOM      9  C   UNL     1     -16.774  -1.701  -0.360  0.00  0.00    +0.011 C 
ATOM     10  C   UNL     1     -18.583  -2.871  -1.603  0.00  0.00    +0.011 C 
ATOM     11  O   UNL     1     -14.661  -4.624  -2.667  0.00  0.00    -0.359 OA
ATOM     12  C   UNL     1     -16.504  -2.255  -2.852  0.00  0.00    +0.079 C 
ATOM     13  N   UNL     1     -14.492  -0.883  -2.322  0.00  0.00    -0.222 N 
ATOM     14  H   UNL     1     -14.530  -0.656  -1.365  0.00  0.00    +0.172 HD
ATOM     15  N   UNL     1     -13.987  -0.109  -3.312  0.00  0.00    -0.131 NA
ATOM     16  N   UNL     1     -13.742  -0.351  -5.628  0.00  0.00    -0.268 N 
ATOM     17  H   UNL     1     -12.791  -0.227  -5.853  0.00  0.00    +0.157 HD
ENDROOT
BRANCH  16  18
ATOM     18  C   UNL     1     -14.723  -0.101  -6.541  0.00  0.00    +0.035 A 
ATOM     19  C   UNL     1     -15.659  -1.051  -6.989  0.00  0.00    +0.023 A 
ATOM     20  C   UNL     1     -16.662  -0.729  -7.909  0.00  0.00    +0.002 A 
ATOM     21  C   UNL     1     -16.763   0.568  -8.404  0.00  0.00    +0.000 A 
ATOM     22  C   UNL     1     -15.860   1.535  -7.971  0.00  0.00    +0.002 A 
ATOM     23  C   UNL     1     -14.859   1.201  -7.050  0.00  0.00    +0.023 A 
ENDBRANCH  16  18
TORSDOF 1
ENDMDL
MODEL 8
REMARK VINA RESULT:      -7.0     10.993     12.151
REMARK  Name = min_compound953.pdb
REMARK  4 active torsions:
REMARK  status: ('A' for Active; 'I' for Inactive)
REMARK    1  A    between atoms: _5  and  _14
REMARK    2  A    between atoms: _5  and  _15
REMARK    3  A    between atoms: _6  and  _13
REMARK    4  A    between atoms: _12  and  _16
REMARK                            x       y       z     vdW  Elec       q    Type
REMARK                         _______ _______ _______ _____ _____    ______ ____
ROOT
ATOM      1  C   UNL     1     -17.495   3.389  -5.168  0.00  0.00    +0.304 C 
ATOM      2  O   UNL     1     -17.627   2.610  -6.274  0.00  0.00    -0.436 OA
ATOM      3  C   UNL     1     -17.826   3.560  -7.316  0.00  0.00    +0.222 C 
ATOM      4  C   UNL     1     -19.130   3.295  -8.007  0.00  0.00    +0.214 C 
ATOM      5  C   UNL     1     -19.236   3.427  -9.514  0.00  0.00    +0.099 C 
ATOM      6  C   UNL     1     -20.551   3.797 -10.114  0.00  0.00    +0.044 C 
ATOM      7  C   UNL     1     -18.011   3.595 -10.376  0.00  0.00    +0.044 C 
ATOM      8  C   UNL     1     -16.797   4.190  -9.632  0.00  0.00    -0.027 C 
ATOM      9  C   UNL     1     -16.965   5.714  -9.495  0.00  0.00    +0.011 C 
ATOM     10  C   UNL     1     -15.527   3.935 -10.471  0.00  0.00    +0.011 C 
ATOM     11  O   UNL     1     -19.238   2.142  -8.860  0.00  0.00    -0.359 OA
ATOM     12  C   UNL     1     -16.617   3.488  -8.264  0.00  0.00    +0.079 C 
ATOM     13  N   UNL     1     -17.908   4.873  -6.643  0.00  0.00    -0.222 N 
ATOM     14  H   UNL     1     -18.091   5.740  -7.073  0.00  0.00    +0.172 HD
ATOM     15  N   UNL     1     -17.684   4.661  -5.325  0.00  0.00    -0.131 NA
ATOM     16  N   UNL     1     -17.241   2.772  -4.015  0.00  0.00    -0.268 N 
ATOM     17  H   UNL     1     -17.918   2.723  -3.302  0.00  0.00    +0.157 HD
ENDROOT
BRANCH  16  18
ATOM     18  C   UNL     1     -16.008   2.210  -3.857  0.00  0.00    +0.035 A 
ATOM     19  C   UNL     1     -14.798   2.929  -3.844  0.00  0.00    +0.023 A 
ATOM     20  C   UNL     1     -13.563   2.301  -3.651  0.00  0.00    +0.002 A 
ATOM     21  C   UNL     1     -13.505   0.925  -3.454  0.00  0.00    +0.000 A 
ATOM     22  C   UNL     1     -14.685   0.186  -3.449  0.00  0.00    +0.002 A 
ATOM     23  C   UNL     1     -15.916   0.826  -3.644  0.00  0.00    +0.023 A 
ENDBRANCH  16  18
TORSDOF 1
ENDMDL
MODEL 9
REMARK VINA RESULT:      -6.8     10.934     13.603
REMARK  Name = min_compound953.pdb
REMARK  4 active torsions:
REMARK  status: ('A' for Active; 'I' for Inactive)
REMARK    1  A    between atoms: _5  and  _14
REMARK    2  A    between atoms: _5  and  _15
REMARK    3  A    between atoms: _6  and  _13
REMARK    4  A    between atoms: _12  and  _16
REMARK                            x       y       z     vdW  Elec       q    Type
REMARK                         _______ _______ _______ _____ _____    ______ ____
ROOT
ATOM      1  C   UNL     1     -17.150   1.315  -7.947  0.00  0.00    +0.304 C 
ATOM      2  O   UNL     1     -17.350   1.574  -6.629  0.00  0.00    -0.436 OA
ATOM      3  C   UNL     1     -16.445   0.683  -5.984  0.00  0.00    +0.222 C 
ATOM      4  C   UNL     1     -17.194  -0.223  -5.054  0.00  0.00    +0.214 C 
ATOM      5  C   UNL     1     -16.610  -0.578  -3.700  0.00  0.00    +0.099 C 
ATOM      6  C   UNL     1     -16.969  -1.887  -3.081  0.00  0.00    +0.044 C 
ATOM      7  C   UNL     1     -15.398   0.135  -3.155  0.00  0.00    +0.044 C 
ATOM      8  C   UNL     1     -14.503   0.768  -4.240  0.00  0.00    -0.027 C 
ATOM      9  C   UNL     1     -13.627  -0.316  -4.893  0.00  0.00    +0.011 C 
ATOM     10  C   UNL     1     -13.558   1.789  -3.570  0.00  0.00    +0.011 C 
ATOM     11  O   UNL     1     -17.726   0.325  -3.835  0.00  0.00    -0.359 OA
ATOM     12  C   UNL     1     -15.374   1.526  -5.272  0.00  0.00    +0.079 C 
ATOM     13  N   UNL     1     -15.857  -0.134  -7.066  0.00  0.00    -0.222 N 
ATOM     14  H   UNL     1     -15.226  -0.881  -6.957  0.00  0.00    +0.172 HD
ATOM     15  N   UNL     1     -16.351   0.338  -8.235  0.00  0.00    -0.131 NA
ATOM     16  N   UNL     1     -17.838   2.048  -8.823  0.00  0.00    -0.268 N 
ATOM     17  H   UNL     1     -18.566   1.656  -9.357  0.00  0.00    +0.157 HD
ENDROOT
BRANCH  16  18
ATOM     18  C   UNL     1     -17.495   3.362  -8.953  0.00  0.00    +0.035 A 
ATOM     19  C   UNL     1     -18.048   4.410  -8.195  0.00  0.00    +0.023 A 
ATOM     20  C   UNL     1     -17.638   5.738  -8.353  0.00  0.00    +0.002 A 
ATOM     21  C   UNL     1     -16.646   6.055  -9.276  0.00  0.00    +0.000 A 
ATOM     22  C   UNL     1     -16.069   5.039 -10.033  0.00  0.00    +0.002 A 
ATOM     23  C   UNL     1     -16.489   3.713  -9.867  0.00  0.00    +0.023 A 
ENDBRANCH  16  18
TORSDOF 1
ENDMDL
