MODEL 1
REMARK VINA RESULT:      -7.2      0.000      0.000
REMARK  Name = min_compound917.pdb
REMARK  3 active torsions:
REMARK  status: ('A' for Active; 'I' for Inactive)
REMARK    1  A    between atoms: _9  and  _10
REMARK    2  A    between atoms: _9  and  _18
REMARK    3  A    between atoms: _12  and  _13
REMARK                            x       y       z     vdW  Elec       q    Type
REMARK                         _______ _______ _______ _____ _____    ______ ____
ROOT
ATOM      1  C   UNL     1     -15.751   2.715 -15.854  0.00  0.00    +0.029 C 
ATOM      2  C   UNL     1     -15.907   4.205 -15.919  0.00  0.00    +0.009 C 
ATOM      3  C   UNL     1     -14.979   4.450 -17.230  0.00  0.00    +0.039 C 
ATOM      4  C   UNL     1     -13.551   4.075 -16.959  0.00  0.00    -0.002 A 
ATOM      5  C   UNL     1     -12.405   4.747 -17.119  0.00  0.00    +0.064 A 
ATOM      6  S   UNL     1     -11.029   3.775 -16.660  0.00  0.00    -0.003 S 
ATOM      7  N   UNL     1     -11.989   2.338 -16.485  0.00  0.00    -0.292 N 
ATOM      8  C   UNL     1     -13.323   2.745 -16.422  0.00  0.00    +0.051 A 
ATOM      9  C   UNL     1     -14.372   2.119 -15.873  0.00  0.00    -0.000 C 
ENDROOT
BRANCH   7  10
ATOM     10  C   UNL     1     -11.492   1.168 -17.293  0.00  0.00    +0.101 C 
ATOM     11  C   UNL     1      -9.941   1.340 -17.429  0.00  0.00    +0.045 C 
ATOM     12  C   UNL     1      -9.197   0.016 -17.599  0.00  0.00    +0.004 C 
ATOM     13  C   UNL     1      -9.380  -0.890 -16.378  0.00  0.00    +0.000 C 
ATOM     14  C   UNL     1     -10.706  -0.652 -15.654  0.00  0.00    +0.004 C 
ATOM     15  C   UNL     1     -11.789  -0.219 -16.637  0.00  0.00    +0.045 C 
BRANCH  10  16
ATOM     16  N   UNL     1     -12.051   1.027 -18.657  0.00  0.00    -0.308 NA
ATOM     17  H   UNL     1     -12.130   1.974 -19.026  0.00  0.00    +0.120 HD
ATOM     18  H   UNL     1     -13.015   0.718 -18.538  0.00  0.00    +0.120 HD
ENDBRANCH  10  16
ENDBRANCH   7  10
BRANCH   5  19
ATOM     19  S   UNL     1     -12.243   6.351 -17.707  0.00  0.00    -0.134 S 
ATOM     20  H   UNL     1     -11.446   6.068 -18.747  0.00  0.00    +0.108 HD
ENDBRANCH   5  19
TORSDOF 3
ENDMDL
MODEL 2
REMARK VINA RESULT:      -6.4      2.251      3.297
REMARK  Name = min_compound917.pdb
REMARK  3 active torsions:
REMARK  status: ('A' for Active; 'I' for Inactive)
REMARK    1  A    between atoms: _9  and  _10
REMARK    2  A    between atoms: _9  and  _18
REMARK    3  A    between atoms: _12  and  _13
REMARK                            x       y       z     vdW  Elec       q    Type
REMARK                         _______ _______ _______ _____ _____    ______ ____
ROOT
ATOM      1  C   UNL     1     -11.807   6.747 -17.734  0.00  0.00    +0.029 C 
ATOM      2  C   UNL     1     -12.952   7.208 -18.586  0.00  0.00    +0.009 C 
ATOM      3  C   UNL     1     -14.046   6.129 -18.057  0.00  0.00    +0.039 C 
ATOM      4  C   UNL     1     -13.643   4.729 -18.418  0.00  0.00    -0.002 A 
ATOM      5  C   UNL     1     -14.295   3.747 -19.050  0.00  0.00    +0.064 A 
ATOM      6  S   UNL     1     -13.321   2.301 -19.154  0.00  0.00    -0.003 S 
ATOM      7  N   UNL     1     -12.098   2.942 -18.100  0.00  0.00    -0.292 N 
ATOM      8  C   UNL     1     -12.305   4.321 -18.027  0.00  0.00    +0.051 A 
ATOM      9  C   UNL     1     -11.432   5.292 -17.731  0.00  0.00    -0.000 C 
ENDROOT
BRANCH   7  10
ATOM     10  C   UNL     1     -11.787   2.064 -16.917  0.00  0.00    +0.101 C 
ATOM     11  C   UNL     1     -12.396   0.654 -17.230  0.00  0.00    +0.045 C 
ATOM     12  C   UNL     1     -11.660  -0.491 -16.536  0.00  0.00    +0.004 C 
ATOM     13  C   UNL     1     -10.205  -0.586 -17.003  0.00  0.00    +0.000 C 
ATOM     14  C   UNL     1      -9.630   0.763 -17.438  0.00  0.00    +0.004 C 
ATOM     15  C   UNL     1     -10.258   1.901 -16.640  0.00  0.00    +0.045 C 
BRANCH  10  16
ATOM     16  N   UNL     1     -12.326   2.507 -15.611  0.00  0.00    -0.308 NA
ATOM     17  H   UNL     1     -11.633   2.234 -14.915  0.00  0.00    +0.120 HD
ATOM     18  H   UNL     1     -13.129   1.909 -15.418  0.00  0.00    +0.120 HD
ENDBRANCH  10  16
ENDBRANCH   7  10
BRANCH   5  19
ATOM     19  S   UNL     1     -15.887   3.831 -19.686  0.00  0.00    -0.134 S 
ATOM     20  H   UNL     1     -16.163   5.080 -19.283  0.00  0.00    +0.108 HD
ENDBRANCH   5  19
TORSDOF 3
ENDMDL
MODEL 3
REMARK VINA RESULT:      -6.3      1.734      4.903
REMARK  Name = min_compound917.pdb
REMARK  3 active torsions:
REMARK  status: ('A' for Active; 'I' for Inactive)
REMARK    1  A    between atoms: _9  and  _10
REMARK    2  A    between atoms: _9  and  _18
REMARK    3  A    between atoms: _12  and  _13
REMARK                            x       y       z     vdW  Elec       q    Type
REMARK                         _______ _______ _______ _____ _____    ______ ____
ROOT
ATOM      1  C   UNL     1     -11.518  -0.480 -16.425  0.00  0.00    +0.029 C 
ATOM      2  C   UNL     1     -10.109  -0.014 -16.207  0.00  0.00    +0.009 C 
ATOM      3  C   UNL     1     -10.467   1.322 -15.354  0.00  0.00    +0.039 C 
ATOM      4  C   UNL     1     -11.231   2.308 -16.189  0.00  0.00    -0.002 A 
ATOM      5  C   UNL     1     -11.029   3.604 -16.449  0.00  0.00    +0.064 A 
ATOM      6  S   UNL     1     -12.286   4.250 -17.475  0.00  0.00    -0.003 S 
ATOM      7  N   UNL     1     -13.251   2.812 -17.351  0.00  0.00    -0.292 N 
ATOM      8  C   UNL     1     -12.419   1.805 -16.857  0.00  0.00    +0.051 A 
ATOM      9  C   UNL     1     -12.530   0.476 -16.988  0.00  0.00    -0.000 C 
ENDROOT
BRANCH   7  10
ATOM     10  C   UNL     1     -14.661   3.058 -16.881  0.00  0.00    +0.101 C 
ATOM     11  C   UNL     1     -15.005   1.911 -15.870  0.00  0.00    +0.045 C 
ATOM     12  C   UNL     1     -16.045   2.316 -14.827  0.00  0.00    +0.004 C 
ATOM     13  C   UNL     1     -15.542   3.466 -13.951  0.00  0.00    +0.000 C 
ATOM     14  C   UNL     1     -14.545   4.373 -14.674  0.00  0.00    +0.004 C 
ATOM     15  C   UNL     1     -14.854   4.434 -16.167  0.00  0.00    +0.045 C 
BRANCH  10  16
ATOM     16  N   UNL     1     -15.709   3.065 -17.927  0.00  0.00    -0.308 NA
ATOM     17  H   UNL     1     -15.832   4.041 -18.193  0.00  0.00    +0.120 HD
ATOM     18  H   UNL     1     -16.579   2.817 -17.459  0.00  0.00    +0.120 HD
ENDBRANCH  10  16
ENDBRANCH   7  10
BRANCH   5  19
ATOM     19  S   UNL     1      -9.731   4.565 -15.870  0.00  0.00    -0.134 S 
ATOM     20  H   UNL     1     -10.470   5.580 -15.400  0.00  0.00    +0.108 HD
ENDBRANCH   5  19
TORSDOF 3
ENDMDL
MODEL 4
REMARK VINA RESULT:      -6.2     12.557     13.918
REMARK  Name = min_compound917.pdb
REMARK  3 active torsions:
REMARK  status: ('A' for Active; 'I' for Inactive)
REMARK    1  A    between atoms: _9  and  _10
REMARK    2  A    between atoms: _9  and  _18
REMARK    3  A    between atoms: _12  and  _13
REMARK                            x       y       z     vdW  Elec       q    Type
REMARK                         _______ _______ _______ _____ _____    ______ ____
ROOT
ATOM      1  C   UNL     1     -14.548  -2.501  -1.592  0.00  0.00    +0.029 C 
ATOM      2  C   UNL     1     -15.559  -2.090  -0.563  0.00  0.00    +0.009 C 
ATOM      3  C   UNL     1     -16.834  -1.980  -1.565  0.00  0.00    +0.039 C 
ATOM      4  C   UNL     1     -16.632  -0.891  -2.578  0.00  0.00    -0.002 A 
ATOM      5  C   UNL     1     -17.392   0.151  -2.932  0.00  0.00    +0.064 A 
ATOM      6  S   UNL     1     -16.648   1.074  -4.214  0.00  0.00    -0.003 S 
ATOM      7  N   UNL     1     -15.401  -0.109  -4.463  0.00  0.00    -0.292 N 
ATOM      8  C   UNL     1     -15.397  -0.938  -3.340  0.00  0.00    +0.051 A 
ATOM      9  C   UNL     1     -14.402  -1.686  -2.845  0.00  0.00    -0.000 C 
ENDROOT
BRANCH   7  10
ATOM     10  C   UNL     1     -15.295  -0.598  -5.883  0.00  0.00    +0.101 C 
ATOM     11  C   UNL     1     -16.760  -0.757  -6.416  0.00  0.00    +0.045 C 
ATOM     12  C   UNL     1     -16.875  -0.589  -7.930  0.00  0.00    +0.004 C 
ATOM     13  C   UNL     1     -16.455   0.816  -8.371  0.00  0.00    +0.000 C 
ATOM     14  C   UNL     1     -15.419   1.447  -7.439  0.00  0.00    +0.004 C 
ATOM     15  C   UNL     1     -14.519   0.377  -6.827  0.00  0.00    +0.045 C 
BRANCH  10  16
ATOM     16  N   UNL     1     -14.600  -1.890  -6.082  0.00  0.00    -0.308 NA
ATOM     17  H   UNL     1     -15.281  -2.613  -5.852  0.00  0.00    +0.120 HD
ATOM     18  H   UNL     1     -13.902  -1.953  -5.342  0.00  0.00    +0.120 HD
ENDBRANCH  10  16
ENDBRANCH   7  10
BRANCH   5  19
ATOM     19  S   UNL     1     -18.914   0.572  -2.260  0.00  0.00    -0.134 S 
ATOM     20  H   UNL     1     -19.298  -0.668  -1.924  0.00  0.00    +0.108 HD
ENDBRANCH   5  19
TORSDOF 3
ENDMDL
MODEL 5
REMARK VINA RESULT:      -6.1      2.228      3.392
REMARK  Name = min_compound917.pdb
REMARK  3 active torsions:
REMARK  status: ('A' for Active; 'I' for Inactive)
REMARK    1  A    between atoms: _9  and  _10
REMARK    2  A    between atoms: _9  and  _18
REMARK    3  A    between atoms: _12  and  _13
REMARK                            x       y       z     vdW  Elec       q    Type
REMARK                         _______ _______ _______ _____ _____    ______ ____
ROOT
ATOM      1  C   UNL     1     -12.407   6.793 -19.136  0.00  0.00    +0.029 C 
ATOM      2  C   UNL     1     -13.784   7.284 -18.799  0.00  0.00    +0.009 C 
ATOM      3  C   UNL     1     -13.733   6.955 -17.209  0.00  0.00    +0.039 C 
ATOM      4  C   UNL     1     -13.619   5.478 -16.965  0.00  0.00    -0.002 A 
ATOM      5  C   UNL     1     -14.338   4.639 -16.212  0.00  0.00    +0.064 A 
ATOM      6  S   UNL     1     -13.708   3.013 -16.293  0.00  0.00    -0.003 S 
ATOM      7  N   UNL     1     -12.288   3.511 -17.160  0.00  0.00    -0.292 N 
ATOM      8  C   UNL     1     -12.541   4.791 -17.656  0.00  0.00    +0.051 A 
ATOM      9  C   UNL     1     -11.991   5.416 -18.705  0.00  0.00    -0.000 C 
ENDROOT
BRANCH   7  10
ATOM     10  C   UNL     1     -10.995   3.089 -16.513  0.00  0.00    +0.101 C 
ATOM     11  C   UNL     1     -11.363   2.025 -15.423  0.00  0.00    +0.045 C 
ATOM     12  C   UNL     1     -10.238   1.030 -15.143  0.00  0.00    +0.004 C 
ATOM     13  C   UNL     1      -9.897   0.206 -16.387  0.00  0.00    +0.000 C 
ATOM     14  C   UNL     1     -10.177   0.953 -17.691  0.00  0.00    +0.004 C 
ATOM     15  C   UNL     1      -9.971   2.454 -17.510  0.00  0.00    +0.045 C 
BRANCH  10  16
ATOM     16  N   UNL     1     -10.211   4.158 -15.853  0.00  0.00    -0.308 NA
ATOM     17  H   UNL     1     -10.893   4.773 -15.412  0.00  0.00    +0.120 HD
ATOM     18  H   UNL     1      -9.810   4.719 -16.604  0.00  0.00    +0.120 HD
ENDBRANCH  10  16
ENDBRANCH   7  10
BRANCH   5  19
ATOM     19  S   UNL     1     -15.704   5.050 -15.258  0.00  0.00    -0.134 S 
ATOM     20  H   UNL     1     -15.914   3.833 -14.733  0.00  0.00    +0.108 HD
ENDBRANCH   5  19
TORSDOF 3
ENDMDL
MODEL 6
REMARK VINA RESULT:      -6.1      2.784      5.127
REMARK  Name = min_compound917.pdb
REMARK  3 active torsions:
REMARK  status: ('A' for Active; 'I' for Inactive)
REMARK    1  A    between atoms: _9  and  _10
REMARK    2  A    between atoms: _9  and  _18
REMARK    3  A    between atoms: _12  and  _13
REMARK                            x       y       z     vdW  Elec       q    Type
REMARK                         _______ _______ _______ _____ _____    ______ ____
ROOT
ATOM      1  C   UNL     1     -11.127   3.285 -15.560  0.00  0.00    +0.029 C 
ATOM      2  C   UNL     1     -10.321   3.853 -16.690  0.00  0.00    +0.009 C 
ATOM      3  C   UNL     1     -11.394   4.980 -17.159  0.00  0.00    +0.039 C 
ATOM      4  C   UNL     1     -12.654   4.345 -17.670  0.00  0.00    -0.002 A 
ATOM      5  C   UNL     1     -13.332   4.501 -18.813  0.00  0.00    +0.064 A 
ATOM      6  S   UNL     1     -14.770   3.509 -18.839  0.00  0.00    -0.003 S 
ATOM      7  N   UNL     1     -14.599   3.061 -17.170  0.00  0.00    -0.292 N 
ATOM      8  C   UNL     1     -13.292   3.377 -16.795  0.00  0.00    +0.051 A 
ATOM      9  C   UNL     1     -12.545   2.858 -15.811  0.00  0.00    -0.000 C 
ENDROOT
BRANCH   7  10
ATOM     10  C   UNL     1     -15.818   3.344 -16.331  0.00  0.00    +0.101 C 
ATOM     11  C   UNL     1     -15.911   2.194 -15.271  0.00  0.00    +0.045 C 
ATOM     12  C   UNL     1     -16.612   2.615 -13.981  0.00  0.00    +0.004 C 
ATOM     13  C   UNL     1     -15.850   3.735 -13.269  0.00  0.00    +0.000 C 
ATOM     14  C   UNL     1     -15.059   4.622 -14.233  0.00  0.00    +0.004 C 
ATOM     15  C   UNL     1     -15.762   4.715 -15.583  0.00  0.00    +0.045 C 
BRANCH  10  16
ATOM     16  N   UNL     1     -17.111   3.400 -17.051  0.00  0.00    -0.308 NA
ATOM     17  H   UNL     1     -17.833   3.362 -16.332  0.00  0.00    +0.120 HD
ATOM     18  H   UNL     1     -17.198   2.513 -17.546  0.00  0.00    +0.120 HD
ENDBRANCH  10  16
ENDBRANCH   7  10
BRANCH   5  19
ATOM     19  S   UNL     1     -12.904   5.533 -20.115  0.00  0.00    -0.134 S 
ATOM     20  H   UNL     1     -11.637   5.113 -20.252  0.00  0.00    +0.108 HD
ENDBRANCH   5  19
TORSDOF 3
ENDMDL
MODEL 7
REMARK VINA RESULT:      -6.0     11.249     12.548
REMARK  Name = min_compound917.pdb
REMARK  3 active torsions:
REMARK  status: ('A' for Active; 'I' for Inactive)
REMARK    1  A    between atoms: _9  and  _10
REMARK    2  A    between atoms: _9  and  _18
REMARK    3  A    between atoms: _12  and  _13
REMARK                            x       y       z     vdW  Elec       q    Type
REMARK                         _______ _______ _______ _____ _____    ______ ____
ROOT
ATOM      1  C   UNL     1     -15.670   2.143  -8.486  0.00  0.00    +0.029 C 
ATOM      2  C   UNL     1     -16.994   2.099  -9.190  0.00  0.00    +0.009 C 
ATOM      3  C   UNL     1     -17.931   2.246  -7.871  0.00  0.00    +0.039 C 
ATOM      4  C   UNL     1     -17.772   1.062  -6.961  0.00  0.00    -0.002 A 
ATOM      5  C   UNL     1     -18.665   0.231  -6.413  0.00  0.00    +0.064 A 
ATOM      6  S   UNL     1     -17.887  -0.958  -5.397  0.00  0.00    -0.003 S 
ATOM      7  N   UNL     1     -16.343  -0.169  -5.504  0.00  0.00    -0.292 N 
ATOM      8  C   UNL     1     -16.413   0.720  -6.578  0.00  0.00    +0.051 A 
ATOM      9  C   UNL     1     -15.422   1.218  -7.329  0.00  0.00    -0.000 C 
ENDROOT
BRANCH   7  10
ATOM     10  C   UNL     1     -15.728   0.156  -4.168  0.00  0.00    +0.101 C 
ATOM     11  C   UNL     1     -14.174   0.134  -4.371  0.00  0.00    +0.045 C 
ATOM     12  C   UNL     1     -13.423   1.042  -3.399  0.00  0.00    +0.004 C 
ATOM     13  C   UNL     1     -13.816   2.510  -3.587  0.00  0.00    +0.000 C 
ATOM     14  C   UNL     1     -15.243   2.681  -4.110  0.00  0.00    +0.004 C 
ATOM     15  C   UNL     1     -16.142   1.555  -3.608  0.00  0.00    +0.045 C 
BRANCH  10  16
ATOM     16  N   UNL     1     -16.050  -0.766  -3.055  0.00  0.00    -0.308 NA
ATOM     17  H   UNL     1     -15.705  -0.315  -2.209  0.00  0.00    +0.120 HD
ATOM     18  H   UNL     1     -15.446  -1.578  -3.175  0.00  0.00    +0.120 HD
ENDBRANCH  10  16
ENDBRANCH   7  10
BRANCH   5  19
ATOM     19  S   UNL     1     -20.366   0.282  -6.631  0.00  0.00    -0.134 S 
ATOM     20  H   UNL     1     -20.426   1.494  -7.201  0.00  0.00    +0.108 HD
ENDBRANCH   5  19
TORSDOF 3
ENDMDL
MODEL 8
REMARK VINA RESULT:      -5.9      1.598      2.016
REMARK  Name = min_compound917.pdb
REMARK  3 active torsions:
REMARK  status: ('A' for Active; 'I' for Inactive)
REMARK    1  A    between atoms: _9  and  _10
REMARK    2  A    between atoms: _9  and  _18
REMARK    3  A    between atoms: _12  and  _13
REMARK                            x       y       z     vdW  Elec       q    Type
REMARK                         _______ _______ _______ _____ _____    ______ ____
ROOT
ATOM      1  C   UNL     1     -15.703   2.531 -15.265  0.00  0.00    +0.029 C 
ATOM      2  C   UNL     1     -16.653   3.482 -15.930  0.00  0.00    +0.009 C 
ATOM      3  C   UNL     1     -15.929   3.506 -17.385  0.00  0.00    +0.039 C 
ATOM      4  C   UNL     1     -14.554   4.102 -17.295  0.00  0.00    -0.002 A 
ATOM      5  C   UNL     1     -13.964   5.092 -17.973  0.00  0.00    +0.064 A 
ATOM      6  S   UNL     1     -12.314   5.325 -17.450  0.00  0.00    -0.003 S 
ATOM      7  N   UNL     1     -12.328   3.892 -16.470  0.00  0.00    -0.292 N 
ATOM      8  C   UNL     1     -13.665   3.527 -16.301  0.00  0.00    +0.051 A 
ATOM      9  C   UNL     1     -14.227   2.804 -15.323  0.00  0.00    -0.000 C 
ENDROOT
BRANCH   7  10
ATOM     10  C   UNL     1     -11.214   2.926 -16.780  0.00  0.00    +0.101 C 
ATOM     11  C   UNL     1     -10.900   2.160 -15.450  0.00  0.00    +0.045 C 
ATOM     12  C   UNL     1     -10.330   0.760 -15.677  0.00  0.00    +0.004 C 
ATOM     13  C   UNL     1     -11.328  -0.138 -16.413  0.00  0.00    +0.000 C 
ATOM     14  C   UNL     1     -12.270   0.645 -17.329  0.00  0.00    +0.004 C 
ATOM     15  C   UNL     1     -11.576   1.884 -17.887  0.00  0.00    +0.045 C 
BRANCH  10  16
ATOM     16  N   UNL     1      -9.949   3.518 -17.269  0.00  0.00    -0.308 NA
ATOM     17  H   UNL     1     -10.204   4.403 -17.706  0.00  0.00    +0.120 HD
ATOM     18  H   UNL     1      -9.641   2.931 -18.043  0.00  0.00    +0.120 HD
ENDBRANCH  10  16
ENDBRANCH   7  10
BRANCH   5  19
ATOM     19  S   UNL     1     -14.677   6.037 -19.215  0.00  0.00    -0.134 S 
ATOM     20  H   UNL     1     -13.548   6.605 -19.663  0.00  0.00    +0.108 HD
ENDBRANCH   5  19
TORSDOF 3
ENDMDL
MODEL 9
REMARK VINA RESULT:      -5.6      2.362      5.607
REMARK  Name = min_compound917.pdb
REMARK  3 active torsions:
REMARK  status: ('A' for Active; 'I' for Inactive)
REMARK    1  A    between atoms: _9  and  _10
REMARK    2  A    between atoms: _9  and  _18
REMARK    3  A    between atoms: _12  and  _13
REMARK                            x       y       z     vdW  Elec       q    Type
REMARK                         _______ _______ _______ _____ _____    ______ ____
ROOT
ATOM      1  C   UNL     1     -11.060   2.029 -16.019  0.00  0.00    +0.029 C 
ATOM      2  C   UNL     1     -10.257   2.836 -16.995  0.00  0.00    +0.009 C 
ATOM      3  C   UNL     1     -10.748   4.303 -16.497  0.00  0.00    +0.039 C 
ATOM      4  C   UNL     1     -12.219   4.489 -16.734  0.00  0.00    -0.002 A 
ATOM      5  C   UNL     1     -12.908   5.451 -17.359  0.00  0.00    +0.064 A 
ATOM      6  S   UNL     1     -14.627   5.149 -17.287  0.00  0.00    -0.003 S 
ATOM      7  N   UNL     1     -14.440   3.831 -16.173  0.00  0.00    -0.292 N 
ATOM      8  C   UNL     1     -13.094   3.459 -16.203  0.00  0.00    +0.051 A 
ATOM      9  C   UNL     1     -12.535   2.282 -15.893  0.00  0.00    -0.000 C 
ENDROOT
BRANCH   7  10
ATOM     10  C   UNL     1     -15.256   3.971 -14.914  0.00  0.00    +0.101 C 
ATOM     11  C   UNL     1     -16.226   5.181 -15.140  0.00  0.00    +0.045 C 
ATOM     12  C   UNL     1     -17.519   5.078 -14.333  0.00  0.00    +0.004 C 
ATOM     13  C   UNL     1     -18.336   3.848 -14.738  0.00  0.00    +0.000 C 
ATOM     14  C   UNL     1     -17.466   2.701 -15.255  0.00  0.00    +0.004 C 
ATOM     15  C   UNL     1     -16.103   2.704 -14.570  0.00  0.00    +0.045 C 
BRANCH  10  16
ATOM     16  N   UNL     1     -14.500   4.226 -13.667  0.00  0.00    -0.308 NA
ATOM     17  H   UNL     1     -14.120   5.167 -13.757  0.00  0.00    +0.120 HD
ATOM     18  H   UNL     1     -13.683   3.617 -13.701  0.00  0.00    +0.120 HD
ENDBRANCH  10  16
ENDBRANCH   7  10
BRANCH   5  19
ATOM     19  S   UNL     1     -12.249   6.831 -18.135  0.00  0.00    -0.134 S 
ATOM     20  H   UNL     1     -11.058   6.818 -17.518  0.00  0.00    +0.108 HD
ENDBRANCH   5  19
TORSDOF 3
ENDMDL
