MODEL 1
REMARK VINA RESULT:      -6.1      0.000      0.000
REMARK  Name = min_compound913.pdb
REMARK  6 active torsions:
REMARK  status: ('A' for Active; 'I' for Inactive)
REMARK    1  A    between atoms: _1  and  _2
REMARK    2  A    between atoms: _1  and  _15
REMARK    3  A    between atoms: _7  and  _8
REMARK    4  A    between atoms: _13  and  _16
REMARK    5  A    between atoms: _13  and  _17
REMARK    6  A    between atoms: _17  and  _18
REMARK                            x       y       z     vdW  Elec       q    Type
REMARK                         _______ _______ _______ _____ _____    ______ ____
ROOT
ATOM      1  N   UNL     1     -13.967   3.216 -17.787  0.00  0.00    -0.226 NA
ATOM      2  C   UNL     1     -13.784   4.164 -18.635  0.00  0.00    +0.155 C 
ATOM      3  S   UNL     1     -15.210   4.970 -19.293  0.00  0.00    -0.088 S 
ATOM      4  C   UNL     1     -14.205   6.138 -20.266  0.00  0.00    +0.104 C 
ATOM      5  C   UNL     1     -12.807   6.106 -19.624  0.00  0.00    +0.063 C 
ATOM      6  C   UNL     1     -11.723   6.385 -20.668  0.00  0.00    +0.035 C 
ATOM      7  N   UNL     1     -12.641   4.742 -19.117  0.00  0.00    -0.315 N 
ATOM      8  H   UNL     1     -11.806   4.596 -18.556  0.00  0.00    +0.149 HD
ENDROOT
BRANCH   1  12
ATOM      9  C   UNL     1     -10.717   1.221 -15.998  0.00  0.00    +0.120 A 
ATOM     10  C   UNL     1     -11.287   0.743 -17.181  0.00  0.00    +0.048 A 
ATOM     11  C   UNL     1     -12.355   1.418 -17.778  0.00  0.00    +0.031 A 
ATOM     12  C   UNL     1     -12.860   2.585 -17.209  0.00  0.00    +0.067 A 
ATOM     13  C   UNL     1     -12.293   3.058 -16.021  0.00  0.00    +0.031 A 
ATOM     14  C   UNL     1     -11.219   2.388 -15.423  0.00  0.00    +0.048 A 
BRANCH   9  15
ATOM     15  O   UNL     1      -9.689   0.463 -15.510  0.00  0.00    -0.495 OA
ATOM     16  C   UNL     1      -9.591  -0.870 -15.994  0.00  0.00    +0.277 C 
ENDBRANCH   9  15
ENDBRANCH   1  12
BRANCH   5  17
ATOM     17  C   UNL     1     -12.702   7.108 -18.445  0.00  0.00    +0.182 C 
BRANCH  17  18
ATOM     18  O   UNL     1     -11.403   7.704 -18.411  0.00  0.00    -0.393 OA
ATOM     19  H   UNL     1     -10.953   7.451 -19.236  0.00  0.00    +0.209 HD
ENDBRANCH  17  18
ENDBRANCH   5  17
TORSDOF 4
ENDMDL
MODEL 2
REMARK VINA RESULT:      -6.1      3.885      5.973
REMARK  Name = min_compound913.pdb
REMARK  6 active torsions:
REMARK  status: ('A' for Active; 'I' for Inactive)
REMARK    1  A    between atoms: _1  and  _2
REMARK    2  A    between atoms: _1  and  _15
REMARK    3  A    between atoms: _7  and  _8
REMARK    4  A    between atoms: _13  and  _16
REMARK    5  A    between atoms: _13  and  _17
REMARK    6  A    between atoms: _17  and  _18
REMARK                            x       y       z     vdW  Elec       q    Type
REMARK                         _______ _______ _______ _____ _____    ______ ____
ROOT
ATOM      1  N   UNL     1     -14.530   3.399 -16.644  0.00  0.00    -0.226 NA
ATOM      2  C   UNL     1     -13.666   2.502 -16.961  0.00  0.00    +0.155 C 
ATOM      3  S   UNL     1     -12.896   2.621 -18.545  0.00  0.00    -0.088 S 
ATOM      4  C   UNL     1     -11.840   1.167 -18.235  0.00  0.00    +0.104 C 
ATOM      5  C   UNL     1     -11.841   0.982 -16.708  0.00  0.00    +0.063 C 
ATOM      6  C   UNL     1     -11.679  -0.495 -16.339  0.00  0.00    +0.035 C 
ATOM      7  N   UNL     1     -13.156   1.444 -16.258  0.00  0.00    -0.315 N 
ATOM      8  H   UNL     1     -13.266   1.495 -15.249  0.00  0.00    +0.149 HD
ENDROOT
BRANCH   1  12
ATOM      9  C   UNL     1     -16.427   3.370 -12.884  0.00  0.00    +0.120 A 
ATOM     10  C   UNL     1     -16.886   2.556 -13.923  0.00  0.00    +0.048 A 
ATOM     11  C   UNL     1     -16.243   2.559 -15.164  0.00  0.00    +0.031 A 
ATOM     12  C   UNL     1     -15.126   3.364 -15.379  0.00  0.00    +0.067 A 
ATOM     13  C   UNL     1     -14.673   4.183 -14.340  0.00  0.00    +0.031 A 
ATOM     14  C   UNL     1     -15.311   4.179 -13.094  0.00  0.00    +0.048 A 
BRANCH   9  15
ATOM     15  O   UNL     1     -17.152   3.284 -11.727  0.00  0.00    -0.495 OA
ATOM     16  C   UNL     1     -16.554   3.828 -10.557  0.00  0.00    +0.277 C 
ENDBRANCH   9  15
ENDBRANCH   1  12
BRANCH   5  17
ATOM     17  C   UNL     1     -10.738   1.838 -16.033  0.00  0.00    +0.182 C 
BRANCH  17  18
ATOM     18  O   UNL     1      -9.986   1.047 -15.110  0.00  0.00    -0.393 OA
ATOM     19  H   UNL     1      -9.211   1.574 -14.849  0.00  0.00    +0.209 HD
ENDBRANCH  17  18
ENDBRANCH   5  17
TORSDOF 4
ENDMDL
MODEL 3
REMARK VINA RESULT:      -5.9      3.454      4.721
REMARK  Name = min_compound913.pdb
REMARK  6 active torsions:
REMARK  status: ('A' for Active; 'I' for Inactive)
REMARK    1  A    between atoms: _1  and  _2
REMARK    2  A    between atoms: _1  and  _15
REMARK    3  A    between atoms: _7  and  _8
REMARK    4  A    between atoms: _13  and  _16
REMARK    5  A    between atoms: _13  and  _17
REMARK    6  A    between atoms: _17  and  _18
REMARK                            x       y       z     vdW  Elec       q    Type
REMARK                         _______ _______ _______ _____ _____    ______ ____
ROOT
ATOM      1  N   UNL     1     -13.768   4.032 -16.659  0.00  0.00    -0.226 NA
ATOM      2  C   UNL     1     -14.499   4.430 -15.679  0.00  0.00    +0.155 C 
ATOM      3  S   UNL     1     -15.865   5.486 -16.044  0.00  0.00    -0.088 S 
ATOM      4  C   UNL     1     -16.400   5.538 -14.302  0.00  0.00    +0.104 C 
ATOM      5  C   UNL     1     -15.728   4.326 -13.635  0.00  0.00    +0.063 C 
ATOM      6  C   UNL     1     -15.440   4.608 -12.158  0.00  0.00    +0.035 C 
ATOM      7  N   UNL     1     -14.459   4.142 -14.342  0.00  0.00    -0.315 N 
ATOM      8  H   UNL     1     -13.951   3.299 -14.090  0.00  0.00    +0.149 HD
ENDROOT
BRANCH   1  12
ATOM      9  C   UNL     1     -10.628   1.358 -15.805  0.00  0.00    +0.120 A 
ATOM     10  C   UNL     1     -11.848   0.893 -16.304  0.00  0.00    +0.048 A 
ATOM     11  C   UNL     1     -12.881   1.787 -16.600  0.00  0.00    +0.031 A 
ATOM     12  C   UNL     1     -12.705   3.157 -16.414  0.00  0.00    +0.067 A 
ATOM     13  C   UNL     1     -11.486   3.619 -15.908  0.00  0.00    +0.031 A 
ATOM     14  C   UNL     1     -10.447   2.727 -15.616  0.00  0.00    +0.048 A 
BRANCH   9  15
ATOM     15  O   UNL     1      -9.707   0.381 -15.544  0.00  0.00    -0.495 OA
ATOM     16  C   UNL     1      -9.707  -0.747 -16.409  0.00  0.00    +0.277 C 
ENDBRANCH   9  15
ENDBRANCH   1  12
BRANCH   5  17
ATOM     17  C   UNL     1     -16.591   3.045 -13.787  0.00  0.00    +0.182 C 
BRANCH  17  18
ATOM     18  O   UNL     1     -17.158   2.672 -12.529  0.00  0.00    -0.393 OA
ATOM     19  H   UNL     1     -16.419   2.421 -11.948  0.00  0.00    +0.209 HD
ENDBRANCH  17  18
ENDBRANCH   5  17
TORSDOF 4
ENDMDL
MODEL 4
REMARK VINA RESULT:      -5.6      8.601     11.040
REMARK  Name = min_compound913.pdb
REMARK  6 active torsions:
REMARK  status: ('A' for Active; 'I' for Inactive)
REMARK    1  A    between atoms: _1  and  _2
REMARK    2  A    between atoms: _1  and  _15
REMARK    3  A    between atoms: _7  and  _8
REMARK    4  A    between atoms: _13  and  _16
REMARK    5  A    between atoms: _13  and  _17
REMARK    6  A    between atoms: _17  and  _18
REMARK                            x       y       z     vdW  Elec       q    Type
REMARK                         _______ _______ _______ _____ _____    ______ ____
ROOT
ATOM      1  N   UNL     1     -17.365   3.635  -8.861  0.00  0.00    -0.226 NA
ATOM      2  C   UNL     1     -16.812   2.841  -8.014  0.00  0.00    +0.155 C 
ATOM      3  S   UNL     1     -17.575   2.659  -6.433  0.00  0.00    -0.088 S 
ATOM      4  C   UNL     1     -16.351   1.421  -5.891  0.00  0.00    +0.104 C 
ATOM      5  C   UNL     1     -15.706   0.894  -7.184  0.00  0.00    +0.063 C 
ATOM      6  C   UNL     1     -14.256   0.471  -6.935  0.00  0.00    +0.035 C 
ATOM      7  N   UNL     1     -15.720   2.023  -8.117  0.00  0.00    -0.315 N 
ATOM      8  H   UNL     1     -15.431   1.794  -9.064  0.00  0.00    +0.149 HD
ENDROOT
BRANCH   1  12
ATOM      9  C   UNL     1     -15.777   4.154 -12.727  0.00  0.00    +0.120 A 
ATOM     10  C   UNL     1     -15.268   4.872 -11.642  0.00  0.00    +0.048 A 
ATOM     11  C   UNL     1     -15.788   4.684 -10.359  0.00  0.00    +0.031 A 
ATOM     12  C   UNL     1     -16.816   3.768 -10.140  0.00  0.00    +0.067 A 
ATOM     13  C   UNL     1     -17.329   3.056 -11.229  0.00  0.00    +0.031 A 
ATOM     14  C   UNL     1     -16.806   3.237 -12.515  0.00  0.00    +0.048 A 
BRANCH   9  15
ATOM     15  O   UNL     1     -15.191   4.440 -13.930  0.00  0.00    -0.495 OA
ATOM     16  C   UNL     1     -15.579   5.655 -14.557  0.00  0.00    +0.277 C 
ENDBRANCH   9  15
ENDBRANCH   1  12
BRANCH   5  17
ATOM     17  C   UNL     1     -16.522  -0.280  -7.787  0.00  0.00    +0.182 C 
BRANCH  17  18
ATOM     18  O   UNL     1     -16.202  -1.504  -7.121  0.00  0.00    -0.393 OA
ATOM     19  H   UNL     1     -16.946  -2.113  -7.274  0.00  0.00    +0.209 HD
ENDBRANCH  17  18
ENDBRANCH   5  17
TORSDOF 4
ENDMDL
MODEL 5
REMARK VINA RESULT:      -5.4     10.799     13.168
REMARK  Name = min_compound913.pdb
REMARK  6 active torsions:
REMARK  status: ('A' for Active; 'I' for Inactive)
REMARK    1  A    between atoms: _1  and  _2
REMARK    2  A    between atoms: _1  and  _15
REMARK    3  A    between atoms: _7  and  _8
REMARK    4  A    between atoms: _13  and  _16
REMARK    5  A    between atoms: _13  and  _17
REMARK    6  A    between atoms: _17  and  _18
REMARK                            x       y       z     vdW  Elec       q    Type
REMARK                         _______ _______ _______ _____ _____    ______ ____
ROOT
ATOM      1  N   UNL     1     -17.686   1.404  -6.632  0.00  0.00    -0.226 NA
ATOM      2  C   UNL     1     -16.886   1.062  -5.686  0.00  0.00    +0.155 C 
ATOM      3  S   UNL     1     -17.374  -0.267  -4.632  0.00  0.00    -0.088 S 
ATOM      4  C   UNL     1     -15.816  -0.202  -3.687  0.00  0.00    +0.104 C 
ATOM      5  C   UNL     1     -14.826   0.558  -4.587  0.00  0.00    +0.063 C 
ATOM      6  C   UNL     1     -13.808   1.330  -3.745  0.00  0.00    +0.035 C 
ATOM      7  N   UNL     1     -15.639   1.512  -5.345  0.00  0.00    -0.315 N 
ATOM      8  H   UNL     1     -15.138   2.010  -6.075  0.00  0.00    +0.149 HD
ENDROOT
BRANCH   1  12
ATOM      9  C   UNL     1     -16.436   4.469  -9.237  0.00  0.00    +0.120 A 
ATOM     10  C   UNL     1     -16.040   3.145  -9.447  0.00  0.00    +0.048 A 
ATOM     11  C   UNL     1     -16.471   2.130  -8.588  0.00  0.00    +0.031 A 
ATOM     12  C   UNL     1     -17.312   2.421  -7.516  0.00  0.00    +0.067 A 
ATOM     13  C   UNL     1     -17.701   3.748  -7.303  0.00  0.00    +0.031 A 
ATOM     14  C   UNL     1     -17.277   4.766  -8.165  0.00  0.00    +0.048 A 
BRANCH   9  15
ATOM     15  O   UNL     1     -15.935   5.367 -10.139  0.00  0.00    -0.495 OA
ATOM     16  C   UNL     1     -15.288   4.830 -11.285  0.00  0.00    +0.277 C 
ENDBRANCH   9  15
ENDBRANCH   1  12
BRANCH   5  17
ATOM     17  C   UNL     1     -14.107  -0.400  -5.573  0.00  0.00    +0.182 C 
BRANCH  17  18
ATOM     18  O   UNL     1     -14.404  -1.761  -5.253  0.00  0.00    -0.393 OA
ATOM     19  H   UNL     1     -13.552  -2.226  -5.174  0.00  0.00    +0.209 HD
ENDBRANCH  17  18
ENDBRANCH   5  17
TORSDOF 4
ENDMDL
MODEL 6
REMARK VINA RESULT:      -5.4      2.215      2.491
REMARK  Name = min_compound913.pdb
REMARK  6 active torsions:
REMARK  status: ('A' for Active; 'I' for Inactive)
REMARK    1  A    between atoms: _1  and  _2
REMARK    2  A    between atoms: _1  and  _15
REMARK    3  A    between atoms: _7  and  _8
REMARK    4  A    between atoms: _13  and  _16
REMARK    5  A    between atoms: _13  and  _17
REMARK    6  A    between atoms: _17  and  _18
REMARK                            x       y       z     vdW  Elec       q    Type
REMARK                         _______ _______ _______ _____ _____    ______ ____
ROOT
ATOM      1  N   UNL     1     -13.735   3.866 -15.321  0.00  0.00    -0.226 NA
ATOM      2  C   UNL     1     -14.442   4.640 -16.065  0.00  0.00    +0.155 C 
ATOM      3  S   UNL     1     -15.741   5.558 -15.300  0.00  0.00    -0.088 S 
ATOM      4  C   UNL     1     -16.179   6.397 -16.858  0.00  0.00    +0.104 C 
ATOM      5  C   UNL     1     -14.948   6.236 -17.767  0.00  0.00    +0.063 C 
ATOM      6  C   UNL     1     -15.363   6.184 -19.239  0.00  0.00    +0.035 C 
ATOM      7  N   UNL     1     -14.352   4.952 -17.394  0.00  0.00    -0.315 N 
ATOM      8  H   UNL     1     -13.454   4.758 -17.830  0.00  0.00    +0.149 HD
ENDROOT
BRANCH   1  12
ATOM      9  C   UNL     1     -10.513   1.659 -16.899  0.00  0.00    +0.120 A 
ATOM     10  C   UNL     1     -11.801   1.120 -16.865  0.00  0.00    +0.048 A 
ATOM     11  C   UNL     1     -12.869   1.862 -16.354  0.00  0.00    +0.031 A 
ATOM     12  C   UNL     1     -12.667   3.158 -15.883  0.00  0.00    +0.067 A 
ATOM     13  C   UNL     1     -11.376   3.694 -15.911  0.00  0.00    +0.031 A 
ATOM     14  C   UNL     1     -10.304   2.955 -16.427  0.00  0.00    +0.048 A 
BRANCH   9  15
ATOM     15  O   UNL     1      -9.555   0.826 -17.409  0.00  0.00    -0.495 OA
ATOM     16  C   UNL     1      -9.867  -0.560 -17.444  0.00  0.00    +0.277 C 
ENDBRANCH   9  15
ENDBRANCH   1  12
BRANCH   5  17
ATOM     17  C   UNL     1     -13.916   7.370 -17.529  0.00  0.00    +0.182 C 
BRANCH  17  18
ATOM     18  O   UNL     1     -14.584   8.611 -17.290  0.00  0.00    -0.393 OA
ATOM     19  H   UNL     1     -14.498   9.140 -18.103  0.00  0.00    +0.209 HD
ENDBRANCH  17  18
ENDBRANCH   5  17
TORSDOF 4
ENDMDL
MODEL 7
REMARK VINA RESULT:      -5.3      9.766     10.910
REMARK  Name = min_compound913.pdb
REMARK  6 active torsions:
REMARK  status: ('A' for Active; 'I' for Inactive)
REMARK    1  A    between atoms: _1  and  _2
REMARK    2  A    between atoms: _1  and  _15
REMARK    3  A    between atoms: _7  and  _8
REMARK    4  A    between atoms: _13  and  _16
REMARK    5  A    between atoms: _13  and  _17
REMARK    6  A    between atoms: _17  and  _18
REMARK                            x       y       z     vdW  Elec       q    Type
REMARK                         _______ _______ _______ _____ _____    ______ ____
ROOT
ATOM      1  N   UNL     1     -17.787   2.041  -7.984  0.00  0.00    -0.226 NA
ATOM      2  C   UNL     1     -17.524   2.880  -8.922  0.00  0.00    +0.155 C 
ATOM      3  S   UNL     1     -18.874   3.503  -9.874  0.00  0.00    -0.088 S 
ATOM      4  C   UNL     1     -17.790   4.594 -10.853  0.00  0.00    +0.104 C 
ATOM      5  C   UNL     1     -16.500   4.733 -10.027  0.00  0.00    +0.063 C 
ATOM      6  C   UNL     1     -15.290   4.940 -10.940  0.00  0.00    +0.035 C 
ATOM      7  N   UNL     1     -16.350   3.460  -9.318  0.00  0.00    -0.315 N 
ATOM      8  H   UNL     1     -15.599   3.442  -8.634  0.00  0.00    +0.149 HD
ENDROOT
BRANCH   1  12
ATOM      9  C   UNL     1     -14.585   0.707  -5.594  0.00  0.00    +0.120 A 
ATOM     10  C   UNL     1     -15.410   1.751  -5.168  0.00  0.00    +0.048 A 
ATOM     11  C   UNL     1     -16.480   2.179  -5.958  0.00  0.00    +0.031 A 
ATOM     12  C   UNL     1     -16.748   1.562  -7.178  0.00  0.00    +0.067 A 
ATOM     13  C   UNL     1     -15.917   0.522  -7.607  0.00  0.00    +0.031 A 
ATOM     14  C   UNL     1     -14.848   0.087  -6.815  0.00  0.00    +0.048 A 
BRANCH   9  15
ATOM     15  O   UNL     1     -13.567   0.394  -4.737  0.00  0.00    -0.495 OA
ATOM     16  C   UNL     1     -13.561   1.060  -3.481  0.00  0.00    +0.277 C 
ENDBRANCH   9  15
ENDBRANCH   1  12
BRANCH   5  17
ATOM     17  C   UNL     1     -16.610   5.886  -8.995  0.00  0.00    +0.182 C 
BRANCH  17  18
ATOM     18  O   UNL     1     -17.019   7.095  -9.638  0.00  0.00    -0.393 OA
ATOM     19  H   UNL     1     -17.991   7.121  -9.601  0.00  0.00    +0.209 HD
ENDBRANCH  17  18
ENDBRANCH   5  17
TORSDOF 4
ENDMDL
MODEL 8
REMARK VINA RESULT:      -5.1     13.814     15.541
REMARK  Name = min_compound913.pdb
REMARK  6 active torsions:
REMARK  status: ('A' for Active; 'I' for Inactive)
REMARK    1  A    between atoms: _1  and  _2
REMARK    2  A    between atoms: _1  and  _15
REMARK    3  A    between atoms: _7  and  _8
REMARK    4  A    between atoms: _13  and  _16
REMARK    5  A    between atoms: _13  and  _17
REMARK    6  A    between atoms: _17  and  _18
REMARK                            x       y       z     vdW  Elec       q    Type
REMARK                         _______ _______ _______ _____ _____    ______ ____
ROOT
ATOM      1  N   UNL     1     -15.910  -1.070  -2.780  0.00  0.00    -0.226 NA
ATOM      2  C   UNL     1     -16.108  -0.643  -3.976  0.00  0.00    +0.155 C 
ATOM      3  S   UNL     1     -16.407   1.083  -4.197  0.00  0.00    -0.088 S 
ATOM      4  C   UNL     1     -16.501   0.921  -6.010  0.00  0.00    +0.104 C 
ATOM      5  C   UNL     1     -15.814  -0.416  -6.335  0.00  0.00    +0.063 C 
ATOM      6  C   UNL     1     -16.423  -1.051  -7.588  0.00  0.00    +0.035 C 
ATOM      7  N   UNL     1     -16.080  -1.283  -5.185  0.00  0.00    -0.315 N 
ATOM      8  H   UNL     1     -15.586  -2.171  -5.199  0.00  0.00    +0.149 HD
ENDROOT
BRANCH   1  12
ATOM      9  C   UNL     1     -15.071  -5.127  -2.019  0.00  0.00    +0.120 A 
ATOM     10  C   UNL     1     -16.389  -4.664  -2.057  0.00  0.00    +0.048 A 
ATOM     11  C   UNL     1     -16.661  -3.320  -2.326  0.00  0.00    +0.031 A 
ATOM     12  C   UNL     1     -15.623  -2.423  -2.571  0.00  0.00    +0.067 A 
ATOM     13  C   UNL     1     -14.304  -2.888  -2.525  0.00  0.00    +0.031 A 
ATOM     14  C   UNL     1     -14.028  -4.235  -2.262  0.00  0.00    +0.048 A 
BRANCH   9  15
ATOM     15  O   UNL     1     -14.939  -6.458  -1.732  0.00  0.00    -0.495 OA
ATOM     16  C   UNL     1     -15.705  -7.360  -2.521  0.00  0.00    +0.277 C 
ENDBRANCH   9  15
ENDBRANCH   1  12
BRANCH   5  17
ATOM     17  C   UNL     1     -14.282  -0.240  -6.501  0.00  0.00    +0.182 C 
BRANCH  17  18
ATOM     18  O   UNL     1     -13.988   1.007  -7.135  0.00  0.00    -0.393 OA
ATOM     19  H   UNL     1     -14.626   1.657  -6.791  0.00  0.00    +0.209 HD
ENDBRANCH  17  18
ENDBRANCH   5  17
TORSDOF 4
ENDMDL
MODEL 9
REMARK VINA RESULT:      -4.9     14.481     17.128
REMARK  Name = min_compound913.pdb
REMARK  6 active torsions:
REMARK  status: ('A' for Active; 'I' for Inactive)
REMARK    1  A    between atoms: _1  and  _2
REMARK    2  A    between atoms: _1  and  _15
REMARK    3  A    between atoms: _7  and  _8
REMARK    4  A    between atoms: _13  and  _16
REMARK    5  A    between atoms: _13  and  _17
REMARK    6  A    between atoms: _17  and  _18
REMARK                            x       y       z     vdW  Elec       q    Type
REMARK                         _______ _______ _______ _____ _____    ______ ____
ROOT
ATOM      1  N   UNL     1     -16.046  -1.274  -1.954  0.00  0.00    -0.226 NA
ATOM      2  C   UNL     1     -15.406  -2.215  -1.357  0.00  0.00    +0.155 C 
ATOM      3  S   UNL     1     -16.157  -2.955   0.060  0.00  0.00    -0.088 S 
ATOM      4  C   UNL     1     -14.792  -4.146   0.266  0.00  0.00    +0.104 C 
ATOM      5  C   UNL     1     -14.072  -4.178  -1.092  0.00  0.00    +0.063 C 
ATOM      6  C   UNL     1     -12.583  -4.483  -0.911  0.00  0.00    +0.035 C 
ATOM      7  N   UNL     1     -14.218  -2.830  -1.646  0.00  0.00    -0.315 N 
ATOM      8  H   UNL     1     -13.892  -2.726  -2.603  0.00  0.00    +0.149 HD
ENDROOT
BRANCH   1  12
ATOM      9  C   UNL     1     -14.350   0.346  -5.452  0.00  0.00    +0.120 A 
ATOM     10  C   UNL     1     -15.436  -0.530  -5.523  0.00  0.00    +0.048 A 
ATOM     11  C   UNL     1     -16.004  -1.053  -4.358  0.00  0.00    +0.031 A 
ATOM     12  C   UNL     1     -15.504  -0.697  -3.107  0.00  0.00    +0.067 A 
ATOM     13  C   UNL     1     -14.413   0.175  -3.039  0.00  0.00    +0.031 A 
ATOM     14  C   UNL     1     -13.844   0.705  -4.203  0.00  0.00    +0.048 A 
BRANCH   9  15
ATOM     15  O   UNL     1     -13.879   0.774  -6.663  0.00  0.00    -0.495 OA
ATOM     16  C   UNL     1     -14.829   1.340  -7.556  0.00  0.00    +0.277 C 
ENDBRANCH   9  15
ENDBRANCH   1  12
BRANCH   5  17
ATOM     17  C   UNL     1     -14.726  -5.202  -2.056  0.00  0.00    +0.182 C 
BRANCH  17  18
ATOM     18  O   UNL     1     -13.727  -6.033  -2.655  0.00  0.00    -0.393 OA
ATOM     19  H   UNL     1     -14.173  -6.848  -2.945  0.00  0.00    +0.209 HD
ENDBRANCH  17  18
ENDBRANCH   5  17
TORSDOF 4
ENDMDL
