MODEL 1
REMARK VINA RESULT:      -8.0      0.000      0.000
REMARK  Name = min_compound982.pdb
REMARK  0 active torsions:
REMARK  status: ('A' for Active; 'I' for Inactive)
REMARK                            x       y       z     vdW  Elec       q    Type
REMARK                         _______ _______ _______ _____ _____    ______ ____
ROOT
ATOM      1  C   UNL     1     -12.329   5.495 -18.133  0.00  0.00    +0.040 C 
ATOM      2  C   UNL     1     -13.467   6.192 -17.443  0.00  0.00    -0.040 A 
ATOM      3  C   UNL     1     -13.673   7.548 -17.795  0.00  0.00    +0.004 A 
ATOM      4  C   UNL     1     -14.662   8.317 -17.198  0.00  0.00    +0.000 A 
ATOM      5  C   UNL     1     -15.478   7.739 -16.245  0.00  0.00    +0.000 A 
ATOM      6  C   UNL     1     -15.297   6.396 -15.904  0.00  0.00    +0.008 A 
ATOM      7  C   UNL     1     -14.284   5.573 -16.475  0.00  0.00    +0.004 A 
ATOM      8  C   UNL     1     -14.227   4.083 -16.038  0.00  0.00    +0.168 C 
ATOM      9  C   UNL     1     -14.373   3.942 -14.496  0.00  0.00    +0.099 C 
ATOM     10  C   UNL     1     -15.772   3.472 -14.327  0.00  0.00    +0.034 C 
ATOM     11  C   UNL     1     -16.456   3.322 -13.186  0.00  0.00    +0.019 C 
ATOM     12  C   UNL     1     -16.361   3.202 -15.651  0.00  0.00    +0.336 C 
ATOM     13  O   UNL     1     -17.472   2.748 -15.860  0.00  0.00    -0.245 OA
ATOM     14  O   UNL     1     -15.450   3.525 -16.601  0.00  0.00    -0.445 OA
ATOM     15  C   UNL     1     -13.091   3.110 -16.459  0.00  0.00    +0.004 A 
ATOM     16  C   UNL     1     -13.347   1.714 -16.348  0.00  0.00    +0.008 A 
ATOM     17  C   UNL     1     -12.363   0.745 -16.553  0.00  0.00    +0.000 A 
ATOM     18  C   UNL     1     -11.077   1.134 -16.879  0.00  0.00    +0.000 A 
ATOM     19  C   UNL     1     -10.792   2.487 -17.021  0.00  0.00    +0.004 A 
ATOM     20  C   UNL     1     -11.783   3.477 -16.828  0.00  0.00    -0.040 A 
ATOM     21  C   UNL     1     -11.382   4.896 -17.106  0.00  0.00    +0.040 C 
ENDROOT
TORSDOF 0
ENDMDL
MODEL 2
REMARK VINA RESULT:      -7.6     12.811     14.625
REMARK  Name = min_compound982.pdb
REMARK  0 active torsions:
REMARK  status: ('A' for Active; 'I' for Inactive)
REMARK                            x       y       z     vdW  Elec       q    Type
REMARK                         _______ _______ _______ _____ _____    ______ ____
ROOT
ATOM      1  C   UNL     1     -17.231   1.785  -4.295  0.00  0.00    +0.040 C 
ATOM      2  C   UNL     1     -15.812   1.543  -3.866  0.00  0.00    -0.040 A 
ATOM      3  C   UNL     1     -14.935   2.650  -3.960  0.00  0.00    +0.004 A 
ATOM      4  C   UNL     1     -13.589   2.547  -3.636  0.00  0.00    +0.000 A 
ATOM      5  C   UNL     1     -13.096   1.335  -3.194  0.00  0.00    +0.000 A 
ATOM      6  C   UNL     1     -13.957   0.240  -3.078  0.00  0.00    +0.008 A 
ATOM      7  C   UNL     1     -15.340   0.293  -3.417  0.00  0.00    +0.004 A 
ATOM      8  C   UNL     1     -16.191  -0.988  -3.193  0.00  0.00    +0.168 C 
ATOM      9  C   UNL     1     -15.452  -2.254  -3.712  0.00  0.00    +0.099 C 
ATOM     10  C   UNL     1     -14.966  -2.901  -2.467  0.00  0.00    +0.034 C 
ATOM     11  C   UNL     1     -14.151  -3.957  -2.354  0.00  0.00    +0.019 C 
ATOM     12  C   UNL     1     -15.502  -2.178  -1.299  0.00  0.00    +0.336 C 
ATOM     13  O   UNL     1     -15.342  -2.487  -0.132  0.00  0.00    -0.245 OA
ATOM     14  O   UNL     1     -16.220  -1.118  -1.742  0.00  0.00    -0.445 OA
ATOM     15  C   UNL     1     -17.668  -1.125  -3.655  0.00  0.00    +0.004 A 
ATOM     16  C   UNL     1     -18.452  -2.149  -3.053  0.00  0.00    +0.008 A 
ATOM     17  C   UNL     1     -19.741  -2.470  -3.485  0.00  0.00    +0.000 A 
ATOM     18  C   UNL     1     -20.301  -1.774  -4.541  0.00  0.00    +0.000 A 
ATOM     19  C   UNL     1     -19.577  -0.750  -5.139  0.00  0.00    +0.004 A 
ATOM     20  C   UNL     1     -18.277  -0.409  -4.703  0.00  0.00    -0.040 A 
ATOM     21  C   UNL     1     -17.634   0.778  -5.359  0.00  0.00    +0.040 C 
ENDROOT
TORSDOF 0
ENDMDL
MODEL 3
REMARK VINA RESULT:      -7.6      1.289      4.613
REMARK  Name = min_compound982.pdb
REMARK  0 active torsions:
REMARK  status: ('A' for Active; 'I' for Inactive)
REMARK                            x       y       z     vdW  Elec       q    Type
REMARK                         _______ _______ _______ _____ _____    ______ ____
ROOT
ATOM      1  C   UNL     1     -11.496   5.789 -17.340  0.00  0.00    +0.040 C 
ATOM      2  C   UNL     1     -11.619   4.374 -16.848  0.00  0.00    -0.040 A 
ATOM      3  C   UNL     1     -10.461   3.569 -16.970  0.00  0.00    +0.004 A 
ATOM      4  C   UNL     1     -10.457   2.232 -16.593  0.00  0.00    +0.000 A 
ATOM      5  C   UNL     1     -11.608   1.678 -16.071  0.00  0.00    +0.000 A 
ATOM      6  C   UNL     1     -12.751   2.470 -15.926  0.00  0.00    +0.008 A 
ATOM      7  C   UNL     1     -12.809   3.838 -16.316  0.00  0.00    +0.004 A 
ATOM      8  C   UNL     1     -14.132   4.611 -16.054  0.00  0.00    +0.168 C 
ATOM      9  C   UNL     1     -15.370   3.771 -16.478  0.00  0.00    +0.099 C 
ATOM     10  C   UNL     1     -15.919   3.293 -15.184  0.00  0.00    +0.034 C 
ATOM     11  C   UNL     1     -16.909   2.415 -14.986  0.00  0.00    +0.019 C 
ATOM     12  C   UNL     1     -15.175   3.919 -14.076  0.00  0.00    +0.336 C 
ATOM     13  O   UNL     1     -15.412   3.785 -12.889  0.00  0.00    -0.245 OA
ATOM     14  O   UNL     1     -14.189   4.688 -14.600  0.00  0.00    -0.445 OA
ATOM     15  C   UNL     1     -14.393   6.057 -16.560  0.00  0.00    +0.004 A 
ATOM     16  C   UNL     1     -15.436   6.795 -15.933  0.00  0.00    +0.008 A 
ATOM     17  C   UNL     1     -15.865   8.042 -16.392  0.00  0.00    +0.000 A 
ATOM     18  C   UNL     1     -15.263   8.605 -17.502  0.00  0.00    +0.000 A 
ATOM     19  C   UNL     1     -14.224   7.928 -18.129  0.00  0.00    +0.004 A 
ATOM     20  C   UNL     1     -13.774   6.671 -17.666  0.00  0.00    -0.040 A 
ATOM     21  C   UNL     1     -12.581   6.083 -18.362  0.00  0.00    +0.040 C 
ENDROOT
TORSDOF 0
ENDMDL
MODEL 4
REMARK VINA RESULT:      -7.5     12.489     14.498
REMARK  Name = min_compound982.pdb
REMARK  0 active torsions:
REMARK  status: ('A' for Active; 'I' for Inactive)
REMARK                            x       y       z     vdW  Elec       q    Type
REMARK                         _______ _______ _______ _____ _____    ______ ____
ROOT
ATOM      1  C   UNL     1     -17.522   0.959  -5.480  0.00  0.00    +0.040 C 
ATOM      2  C   UNL     1     -18.222  -0.227  -4.880  0.00  0.00    -0.040 A 
ATOM      3  C   UNL     1     -19.491  -0.542  -5.424  0.00  0.00    +0.004 A 
ATOM      4  C   UNL     1     -20.260  -1.587  -4.930  0.00  0.00    +0.000 A 
ATOM      5  C   UNL     1     -19.768  -2.349  -3.889  0.00  0.00    +0.000 A 
ATOM      6  C   UNL     1     -18.507  -2.060  -3.358  0.00  0.00    +0.008 A 
ATOM      7  C   UNL     1     -17.692  -0.987  -3.819  0.00  0.00    +0.004 A 
ATOM      8  C   UNL     1     -16.291  -0.810  -3.168  0.00  0.00    +0.168 C 
ATOM      9  C   UNL     1     -16.368  -0.937  -1.621  0.00  0.00    +0.099 C 
ATOM     10  C   UNL     1     -15.821  -2.293  -1.360  0.00  0.00    +0.034 C 
ATOM     11  C   UNL     1     -15.788  -2.956  -0.199  0.00  0.00    +0.019 C 
ATOM     12  C   UNL     1     -15.313  -2.865  -2.621  0.00  0.00    +0.336 C 
ATOM     13  O   UNL     1     -14.748  -3.937  -2.742  0.00  0.00    -0.245 OA
ATOM     14  O   UNL     1     -15.563  -1.987  -3.623  0.00  0.00    -0.445 OA
ATOM     15  C   UNL     1     -15.358   0.397  -3.461  0.00  0.00    +0.004 A 
ATOM     16  C   UNL     1     -13.978   0.254  -3.143  0.00  0.00    +0.008 A 
ATOM     17  C   UNL     1     -13.069   1.311  -3.219  0.00  0.00    +0.000 A 
ATOM     18  C   UNL     1     -13.505   2.561  -3.621  0.00  0.00    +0.000 A 
ATOM     19  C   UNL     1     -14.840   2.736  -3.964  0.00  0.00    +0.004 A 
ATOM     20  C   UNL     1     -15.767   1.670  -3.903  0.00  0.00    -0.040 A 
ATOM     21  C   UNL     1     -17.157   1.955  -4.392  0.00  0.00    +0.040 C 
ENDROOT
TORSDOF 0
ENDMDL
MODEL 5
REMARK VINA RESULT:      -7.3      9.992     13.082
REMARK  Name = min_compound982.pdb
REMARK  0 active torsions:
REMARK  status: ('A' for Active; 'I' for Inactive)
REMARK                            x       y       z     vdW  Elec       q    Type
REMARK                         _______ _______ _______ _____ _____    ______ ____
ROOT
ATOM      1  C   UNL     1     -13.996  -0.275  -5.378  0.00  0.00    +0.040 C 
ATOM      2  C   UNL     1     -15.071   0.470  -6.117  0.00  0.00    -0.040 A 
ATOM      3  C   UNL     1     -14.660   1.166  -7.281  0.00  0.00    +0.004 A 
ATOM      4  C   UNL     1     -15.546   1.929  -8.028  0.00  0.00    +0.000 A 
ATOM      5  C   UNL     1     -16.868   1.998  -7.636  0.00  0.00    +0.000 A 
ATOM      6  C   UNL     1     -17.290   1.299  -6.502  0.00  0.00    +0.008 A 
ATOM      7  C   UNL     1     -16.414   0.520  -5.693  0.00  0.00    +0.004 A 
ATOM      8  C   UNL     1     -17.028  -0.244  -4.486  0.00  0.00    +0.168 C 
ATOM      9  C   UNL     1     -18.005   0.661  -3.684  0.00  0.00    +0.099 C 
ATOM     10  C   UNL     1     -19.344   0.172  -4.100  0.00  0.00    +0.034 C 
ATOM     11  C   UNL     1     -20.539   0.699  -3.807  0.00  0.00    +0.019 C 
ATOM     12  C   UNL     1     -19.186  -1.023  -4.949  0.00  0.00    +0.336 C 
ATOM     13  O   UNL     1     -20.089  -1.701  -5.405  0.00  0.00    -0.245 OA
ATOM     14  O   UNL     1     -17.862  -1.255  -5.123  0.00  0.00    -0.445 OA
ATOM     15  C   UNL     1     -16.177  -1.006  -3.434  0.00  0.00    +0.004 A 
ATOM     16  C   UNL     1     -16.838  -1.981  -2.635  0.00  0.00    +0.008 A 
ATOM     17  C   UNL     1     -16.222  -2.625  -1.559  0.00  0.00    +0.000 A 
ATOM     18  C   UNL     1     -14.912  -2.319  -1.239  0.00  0.00    +0.000 A 
ATOM     19  C   UNL     1     -14.223  -1.391  -2.009  0.00  0.00    +0.004 A 
ATOM     20  C   UNL     1     -14.833  -0.742  -3.108  0.00  0.00    -0.040 A 
ATOM     21  C   UNL     1     -13.960   0.166  -3.925  0.00  0.00    +0.040 C 
ENDROOT
TORSDOF 0
ENDMDL
MODEL 6
REMARK VINA RESULT:      -7.1      9.268     12.993
REMARK  Name = min_compound982.pdb
REMARK  0 active torsions:
REMARK  status: ('A' for Active; 'I' for Inactive)
REMARK                            x       y       z     vdW  Elec       q    Type
REMARK                         _______ _______ _______ _____ _____    ______ ____
ROOT
ATOM      1  C   UNL     1     -17.465  -0.877  -2.896  0.00  0.00    +0.040 C 
ATOM      2  C   UNL     1     -18.383  -0.769  -4.081  0.00  0.00    -0.040 A 
ATOM      3  C   UNL     1     -19.593  -1.501  -4.001  0.00  0.00    +0.004 A 
ATOM      4  C   UNL     1     -20.506  -1.521  -5.047  0.00  0.00    +0.000 A 
ATOM      5  C   UNL     1     -20.235  -0.794  -6.188  0.00  0.00    +0.000 A 
ATOM      6  C   UNL     1     -19.054  -0.050  -6.270  0.00  0.00    +0.008 A 
ATOM      7  C   UNL     1     -18.079  -0.015  -5.233  0.00  0.00    +0.004 A 
ATOM      8  C   UNL     1     -16.833   0.892  -5.438  0.00  0.00    +0.168 C 
ATOM      9  C   UNL     1     -16.243   0.723  -6.867  0.00  0.00    +0.099 C 
ATOM     10  C   UNL     1     -16.695   1.950  -7.571  0.00  0.00    +0.034 C 
ATOM     11  C   UNL     1     -16.574   2.244  -8.871  0.00  0.00    +0.019 C 
ATOM     12  C   UNL     1     -17.359   2.849  -6.609  0.00  0.00    +0.336 C 
ATOM     13  O   UNL     1     -17.790   3.962  -6.851  0.00  0.00    -0.245 OA
ATOM     14  O   UNL     1     -17.392   2.236  -5.400  0.00  0.00    -0.445 OA
ATOM     15  C   UNL     1     -15.622   0.915  -4.466  0.00  0.00    +0.004 A 
ATOM     16  C   UNL     1     -14.754   2.042  -4.524  0.00  0.00    +0.008 A 
ATOM     17  C   UNL     1     -13.556   2.113  -3.811  0.00  0.00    +0.000 A 
ATOM     18  C   UNL     1     -13.175   1.055  -3.006  0.00  0.00    +0.000 A 
ATOM     19  C   UNL     1     -14.006  -0.054  -2.903  0.00  0.00    +0.004 A 
ATOM     20  C   UNL     1     -15.228  -0.132  -3.611  0.00  0.00    -0.040 A 
ATOM     21  C   UNL     1     -16.087  -1.333  -3.343  0.00  0.00    +0.040 C 
ENDROOT
TORSDOF 0
ENDMDL
MODEL 7
REMARK VINA RESULT:      -7.1      8.489     11.932
REMARK  Name = min_compound982.pdb
REMARK  0 active torsions:
REMARK  status: ('A' for Active; 'I' for Inactive)
REMARK                            x       y       z     vdW  Elec       q    Type
REMARK                         _______ _______ _______ _____ _____    ______ ____
ROOT
ATOM      1  C   UNL     1     -14.914   0.255  -7.246  0.00  0.00    +0.040 C 
ATOM      2  C   UNL     1     -15.061   0.218  -5.751  0.00  0.00    -0.040 A 
ATOM      3  C   UNL     1     -14.342  -0.801  -5.080  0.00  0.00    +0.004 A 
ATOM      4  C   UNL     1     -14.427  -0.971  -3.705  0.00  0.00    +0.000 A 
ATOM      5  C   UNL     1     -15.220  -0.113  -2.970  0.00  0.00    +0.000 A 
ATOM      6  C   UNL     1     -15.918   0.909  -3.619  0.00  0.00    +0.008 A 
ATOM      7  C   UNL     1     -15.878   1.111  -5.029  0.00  0.00    +0.004 A 
ATOM      8  C   UNL     1     -16.666   2.317  -5.612  0.00  0.00    +0.168 C 
ATOM      9  C   UNL     1     -18.088   2.415  -4.991  0.00  0.00    +0.099 C 
ATOM     10  C   UNL     1     -17.964   3.537  -4.027  0.00  0.00    +0.034 C 
ATOM     11  C   UNL     1     -18.865   3.951  -3.128  0.00  0.00    +0.019 C 
ATOM     12  C   UNL     1     -16.636   4.162  -4.171  0.00  0.00    +0.336 C 
ATOM     13  O   UNL     1     -16.239   5.144  -3.571  0.00  0.00    -0.245 OA
ATOM     14  O   UNL     1     -15.934   3.469  -5.101  0.00  0.00    -0.445 OA
ATOM     15  C   UNL     1     -16.836   2.571  -7.135  0.00  0.00    +0.004 A 
ATOM     16  C   UNL     1     -17.210   3.883  -7.544  0.00  0.00    +0.008 A 
ATOM     17  C   UNL     1     -17.537   4.201  -8.864  0.00  0.00    +0.000 A 
ATOM     18  C   UNL     1     -17.503   3.215  -9.833  0.00  0.00    +0.000 A 
ATOM     19  C   UNL     1     -17.120   1.927  -9.479  0.00  0.00    +0.004 A 
ATOM     20  C   UNL     1     -16.774   1.596  -8.149  0.00  0.00    -0.040 A 
ATOM     21  C   UNL     1     -16.282   0.200  -7.906  0.00  0.00    +0.040 C 
ENDROOT
TORSDOF 0
ENDMDL
MODEL 8
REMARK VINA RESULT:      -7.1     12.664     14.498
REMARK  Name = min_compound982.pdb
REMARK  0 active torsions:
REMARK  status: ('A' for Active; 'I' for Inactive)
REMARK                            x       y       z     vdW  Elec       q    Type
REMARK                         _______ _______ _______ _____ _____    ______ ____
ROOT
ATOM      1  C   UNL     1     -14.253  -1.406  -2.660  0.00  0.00    +0.040 C 
ATOM      2  C   UNL     1     -14.488   0.008  -3.110  0.00  0.00    -0.040 A 
ATOM      3  C   UNL     1     -13.339   0.829  -3.212  0.00  0.00    +0.004 A 
ATOM      4  C   UNL     1     -13.425   2.166  -3.575  0.00  0.00    +0.000 A 
ATOM      5  C   UNL     1     -14.663   2.706  -3.860  0.00  0.00    +0.000 A 
ATOM      6  C   UNL     1     -15.802   1.899  -3.783  0.00  0.00    +0.008 A 
ATOM      7  C   UNL     1     -15.766   0.529  -3.396  0.00  0.00    +0.004 A 
ATOM      8  C   UNL     1     -17.104  -0.262  -3.399  0.00  0.00    +0.168 C 
ATOM      9  C   UNL     1     -18.246   0.560  -2.737  0.00  0.00    +0.099 C 
ATOM     10  C   UNL     1     -19.043   1.035  -3.897  0.00  0.00    +0.034 C 
ATOM     11  C   UNL     1     -20.065   1.899  -3.893  0.00  0.00    +0.019 C 
ATOM     12  C   UNL     1     -18.522   0.422  -5.132  0.00  0.00    +0.336 C 
ATOM     13  O   UNL     1     -18.988   0.556  -6.249  0.00  0.00    -0.245 OA
ATOM     14  O   UNL     1     -17.443  -0.335  -4.814  0.00  0.00    -0.445 OA
ATOM     15  C   UNL     1     -17.242  -1.712  -2.860  0.00  0.00    +0.004 A 
ATOM     16  C   UNL     1     -18.378  -2.463  -3.276  0.00  0.00    +0.008 A 
ATOM     17  C   UNL     1     -18.692  -3.717  -2.749  0.00  0.00    +0.000 A 
ATOM     18  C   UNL     1     -17.878  -4.275  -1.781  0.00  0.00    +0.000 A 
ATOM     19  C   UNL     1     -16.746  -3.585  -1.365  0.00  0.00    +0.004 A 
ATOM     20  C   UNL     1     -16.411  -2.320  -1.900  0.00  0.00    -0.040 A 
ATOM     21  C   UNL     1     -15.113  -1.718  -1.447  0.00  0.00    +0.040 C 
ENDROOT
TORSDOF 0
ENDMDL
MODEL 9
REMARK VINA RESULT:      -7.0      2.095      4.285
REMARK  Name = min_compound982.pdb
REMARK  0 active torsions:
REMARK  status: ('A' for Active; 'I' for Inactive)
REMARK                            x       y       z     vdW  Elec       q    Type
REMARK                         _______ _______ _______ _____ _____    ______ ____
ROOT
ATOM      1  C   UNL     1     -14.723   3.387 -15.169  0.00  0.00    +0.040 C 
ATOM      2  C   UNL     1     -15.323   4.502 -15.978  0.00  0.00    -0.040 A 
ATOM      3  C   UNL     1     -16.600   4.955 -15.566  0.00  0.00    +0.004 A 
ATOM      4  C   UNL     1     -17.281   5.948 -16.256  0.00  0.00    +0.000 A 
ATOM      5  C   UNL     1     -16.692   6.521 -17.365  0.00  0.00    +0.000 A 
ATOM      6  C   UNL     1     -15.423   6.096 -17.769  0.00  0.00    +0.008 A 
ATOM      7  C   UNL     1     -14.694   5.068 -17.106  0.00  0.00    +0.004 A 
ATOM      8  C   UNL     1     -13.272   4.728 -17.635  0.00  0.00    +0.168 C 
ATOM      9  C   UNL     1     -13.259   4.624 -19.187  0.00  0.00    +0.099 C 
ATOM     10  C   UNL     1     -12.624   5.898 -19.610  0.00  0.00    +0.034 C 
ATOM     11  C   UNL     1     -12.491   6.377 -20.852  0.00  0.00    +0.019 C 
ATOM     12  C   UNL     1     -12.153   6.629 -18.419  0.00  0.00    +0.336 C 
ATOM     13  O   UNL     1     -11.537   7.679 -18.422  0.00  0.00    -0.245 OA
ATOM     14  O   UNL     1     -12.505   5.925 -17.315  0.00  0.00    -0.445 OA
ATOM     15  C   UNL     1     -12.426   3.536 -17.111  0.00  0.00    +0.004 A 
ATOM     16  C   UNL     1     -11.025   3.564 -17.361  0.00  0.00    +0.008 A 
ATOM     17  C   UNL     1     -10.182   2.489 -17.073  0.00  0.00    +0.000 A 
ATOM     18  C   UNL     1     -10.708   1.336 -16.519  0.00  0.00    +0.000 A 
ATOM     19  C   UNL     1     -12.068   1.278 -16.237  0.00  0.00    +0.004 A 
ATOM     20  C   UNL     1     -12.929   2.365 -16.512  0.00  0.00    -0.040 A 
ATOM     21  C   UNL     1     -14.357   2.223 -16.073  0.00  0.00    +0.040 C 
ENDROOT
TORSDOF 0
ENDMDL
