MODEL 1
REMARK VINA RESULT:      -7.5      0.000      0.000
REMARK  Name = min_compound987.pdb
REMARK  4 active torsions:
REMARK  status: ('A' for Active; 'I' for Inactive)
REMARK    1  A    between atoms: _6  and  _21
REMARK    2  A    between atoms: _7  and  _20
REMARK    3  A    between atoms: _14  and  _15
REMARK    4  A    between atoms: _18  and  _19
REMARK                            x       y       z     vdW  Elec       q    Type
REMARK                         _______ _______ _______ _____ _____    ______ ____
ROOT
ATOM      1  C   UNL     1     -15.714   1.268  -3.888  0.00  0.00    +0.005 A 
ATOM      2  C   UNL     1     -14.374   1.236  -3.495  0.00  0.00    -0.050 A 
ATOM      3  C   UNL     1     -13.484   2.418  -3.735  0.00  0.00    +0.044 C 
ATOM      4  C   UNL     1     -13.849   0.064  -2.929  0.00  0.00    +0.014 A 
ATOM      5  C   UNL     1     -14.675  -1.067  -2.737  0.00  0.00    +0.008 A 
ATOM      6  C   UNL     1     -14.459  -2.374  -2.197  0.00  0.00    +0.008 A 
ATOM      7  C   UNL     1     -13.329  -2.962  -1.620  0.00  0.00    +0.011 A 
ATOM      8  C   UNL     1     -13.397  -4.278  -1.172  0.00  0.00    +0.013 A 
ATOM      9  C   UNL     1     -14.523  -5.099  -1.347  0.00  0.00    +0.029 A 
ATOM     10  C   UNL     1     -14.452  -6.449  -0.861  0.00  0.00    +0.125 A 
ATOM     11  C   UNL     1     -15.591  -7.210  -1.147  0.00  0.00    +0.049 A 
ATOM     12  C   UNL     1     -16.696  -6.730  -1.873  0.00  0.00    +0.049 A 
ATOM     13  C   UNL     1     -16.818  -5.421  -2.370  0.00  0.00    +0.127 A 
ATOM     14  C   UNL     1     -15.700  -4.558  -2.028  0.00  0.00    +0.051 A 
ATOM     15  C   UNL     1     -15.634  -3.128  -2.339  0.00  0.00    +0.061 A 
ATOM     16  N   UNL     1     -16.590  -2.194  -2.739  0.00  0.00    -0.342 N 
ATOM     17  C   UNL     1     -18.023  -2.324  -2.578  0.00  0.00    +0.149 C 
ATOM     18  C   UNL     1     -16.007  -0.992  -3.112  0.00  0.00    +0.050 A 
ATOM     19  C   UNL     1     -16.554   0.164  -3.694  0.00  0.00    +0.027 A 
ENDROOT
BRANCH  10  20
ATOM     20  O   UNL     1     -13.465  -6.974  -0.218  0.00  0.00    -0.506 OA
ATOM     21  H   UNL     1     -13.056  -6.501   0.479  0.00  0.00    +0.292 HD
ENDBRANCH  10  20
BRANCH  13  22
ATOM     22  O   UNL     1     -17.838  -5.129  -3.094  0.00  0.00    -0.506 OA
ATOM     23  H   UNL     1     -17.739  -5.019  -4.019  0.00  0.00    +0.292 HD
ENDBRANCH  13  22
TORSDOF 2
ENDMDL
MODEL 2
REMARK VINA RESULT:      -7.5     14.855     16.308
REMARK  Name = min_compound987.pdb
REMARK  4 active torsions:
REMARK  status: ('A' for Active; 'I' for Inactive)
REMARK    1  A    between atoms: _6  and  _21
REMARK    2  A    between atoms: _7  and  _20
REMARK    3  A    between atoms: _14  and  _15
REMARK    4  A    between atoms: _18  and  _19
REMARK                            x       y       z     vdW  Elec       q    Type
REMARK                         _______ _______ _______ _____ _____    ______ ____
ROOT
ATOM      1  C   UNL     1     -15.002   7.967 -16.695  0.00  0.00    +0.005 A 
ATOM      2  C   UNL     1     -16.044   7.252 -16.100  0.00  0.00    -0.050 A 
ATOM      3  C   UNL     1     -17.257   7.965 -15.583  0.00  0.00    +0.044 C 
ATOM      4  C   UNL     1     -15.920   5.864 -15.932  0.00  0.00    +0.014 A 
ATOM      5  C   UNL     1     -14.761   5.192 -16.382  0.00  0.00    +0.008 A 
ATOM      6  C   UNL     1     -14.337   3.826 -16.369  0.00  0.00    +0.008 A 
ATOM      7  C   UNL     1     -14.978   2.661 -15.933  0.00  0.00    +0.011 A 
ATOM      8  C   UNL     1     -14.321   1.440 -16.037  0.00  0.00    +0.013 A 
ATOM      9  C   UNL     1     -12.994   1.309 -16.478  0.00  0.00    +0.029 A 
ATOM     10  C   UNL     1     -12.425  -0.010 -16.513  0.00  0.00    +0.125 A 
ATOM     11  C   UNL     1     -11.078  -0.030 -16.893  0.00  0.00    +0.049 A 
ATOM     12  C   UNL     1     -10.324   1.121 -17.183  0.00  0.00    +0.049 A 
ATOM     13  C   UNL     1     -10.830   2.432 -17.165  0.00  0.00    +0.127 A 
ATOM     14  C   UNL     1     -12.249   2.508 -16.860  0.00  0.00    +0.051 A 
ATOM     15  C   UNL     1     -13.032   3.746 -16.880  0.00  0.00    +0.061 A 
ATOM     16  N   UNL     1     -12.794   5.018 -17.402  0.00  0.00    -0.342 N 
ATOM     17  C   UNL     1     -11.829   5.346 -18.430  0.00  0.00    +0.149 C 
ATOM     18  C   UNL     1     -13.758   5.928 -16.994  0.00  0.00    +0.050 A 
ATOM     19  C   UNL     1     -13.851   7.320 -17.161  0.00  0.00    +0.027 A 
ENDROOT
BRANCH  10  20
ATOM     20  O   UNL     1     -13.036  -1.109 -16.231  0.00  0.00    -0.506 OA
ATOM     21  H   UNL     1     -13.068  -1.414 -15.346  0.00  0.00    +0.292 HD
ENDBRANCH  10  20
BRANCH  13  22
ATOM     22  O   UNL     1     -10.019   3.409 -17.362  0.00  0.00    -0.506 OA
ATOM     23  H   UNL     1     -10.257   4.105 -17.942  0.00  0.00    +0.292 HD
ENDBRANCH  13  22
TORSDOF 2
ENDMDL
MODEL 3
REMARK VINA RESULT:      -7.3     14.827     16.984
REMARK  Name = min_compound987.pdb
REMARK  4 active torsions:
REMARK  status: ('A' for Active; 'I' for Inactive)
REMARK    1  A    between atoms: _6  and  _21
REMARK    2  A    between atoms: _7  and  _20
REMARK    3  A    between atoms: _14  and  _15
REMARK    4  A    between atoms: _18  and  _19
REMARK                            x       y       z     vdW  Elec       q    Type
REMARK                         _______ _______ _______ _____ _____    ______ ____
ROOT
ATOM      1  C   UNL     1     -11.102  -0.154 -16.631  0.00  0.00    +0.005 A 
ATOM      2  C   UNL     1     -10.155   0.643 -17.277  0.00  0.00    -0.050 A 
ATOM      3  C   UNL     1      -8.830   0.071 -17.683  0.00  0.00    +0.044 C 
ATOM      4  C   UNL     1     -10.428   2.003 -17.490  0.00  0.00    +0.014 A 
ATOM      5  C   UNL     1     -11.660   2.556 -17.073  0.00  0.00    +0.008 A 
ATOM      6  C   UNL     1     -12.235   3.864 -17.144  0.00  0.00    +0.008 A 
ATOM      7  C   UNL     1     -11.765   5.053 -17.711  0.00  0.00    +0.011 A 
ATOM      8  C   UNL     1     -12.544   6.203 -17.632  0.00  0.00    +0.013 A 
ATOM      9  C   UNL     1     -13.757   6.270 -16.926  0.00  0.00    +0.029 A 
ATOM     10  C   UNL     1     -14.450   7.528 -16.900  0.00  0.00    +0.125 A 
ATOM     11  C   UNL     1     -15.606   7.516 -16.112  0.00  0.00    +0.049 A 
ATOM     12  C   UNL     1     -16.047   6.401 -15.377  0.00  0.00    +0.049 A 
ATOM     13  C   UNL     1     -15.408   5.149 -15.367  0.00  0.00    +0.127 A 
ATOM     14  C   UNL     1     -14.247   5.076 -16.238  0.00  0.00    +0.051 A 
ATOM     15  C   UNL     1     -13.472   3.857 -16.481  0.00  0.00    +0.061 A 
ATOM     16  N   UNL     1     -13.718   2.506 -16.237  0.00  0.00    -0.342 N 
ATOM     17  C   UNL     1     -15.017   1.906 -16.015  0.00  0.00    +0.149 C 
ATOM     18  C   UNL     1     -12.589   1.731 -16.460  0.00  0.00    +0.050 A 
ATOM     19  C   UNL     1     -12.335   0.369 -16.223  0.00  0.00    +0.027 A 
ENDROOT
BRANCH  10  20
ATOM     20  O   UNL     1     -14.096   8.603 -17.518  0.00  0.00    -0.506 OA
ATOM     21  H   UNL     1     -14.033   8.608 -18.452  0.00  0.00    +0.292 HD
ENDBRANCH  10  20
BRANCH  13  22
ATOM     22  O   UNL     1     -15.858   4.234 -14.585  0.00  0.00    -0.506 OA
ATOM     23  H   UNL     1     -15.264   3.646 -14.162  0.00  0.00    +0.292 HD
ENDBRANCH  13  22
TORSDOF 2
ENDMDL
MODEL 4
REMARK VINA RESULT:      -7.1     15.120     17.149
REMARK  Name = min_compound987.pdb
REMARK  4 active torsions:
REMARK  status: ('A' for Active; 'I' for Inactive)
REMARK    1  A    between atoms: _6  and  _21
REMARK    2  A    between atoms: _7  and  _20
REMARK    3  A    between atoms: _14  and  _15
REMARK    4  A    between atoms: _18  and  _19
REMARK                            x       y       z     vdW  Elec       q    Type
REMARK                         _______ _______ _______ _____ _____    ______ ____
ROOT
ATOM      1  C   UNL     1      -9.963   1.203 -17.158  0.00  0.00    +0.005 A 
ATOM      2  C   UNL     1     -10.980   0.421 -16.605  0.00  0.00    -0.050 A 
ATOM      3  C   UNL     1     -10.804  -1.060 -16.456  0.00  0.00    +0.044 C 
ATOM      4  C   UNL     1     -12.195   1.025 -16.245  0.00  0.00    +0.014 A 
ATOM      5  C   UNL     1     -12.380   2.415 -16.421  0.00  0.00    +0.008 A 
ATOM      6  C   UNL     1     -13.462   3.314 -16.158  0.00  0.00    +0.008 A 
ATOM      7  C   UNL     1     -14.717   3.106 -15.578  0.00  0.00    +0.011 A 
ATOM      8  C   UNL     1     -15.593   4.179 -15.444  0.00  0.00    +0.013 A 
ATOM      9  C   UNL     1     -15.328   5.463 -15.946  0.00  0.00    +0.029 A 
ATOM     10  C   UNL     1     -16.331   6.476 -15.764  0.00  0.00    +0.125 A 
ATOM     11  C   UNL     1     -16.009   7.699 -16.362  0.00  0.00    +0.049 A 
ATOM     12  C   UNL     1     -14.838   7.928 -17.107  0.00  0.00    +0.049 A 
ATOM     13  C   UNL     1     -13.826   6.975 -17.315  0.00  0.00    +0.127 A 
ATOM     14  C   UNL     1     -14.066   5.709 -16.643  0.00  0.00    +0.051 A 
ATOM     15  C   UNL     1     -13.116   4.593 -16.620  0.00  0.00    +0.061 A 
ATOM     16  N   UNL     1     -11.760   4.487 -16.930  0.00  0.00    -0.342 N 
ATOM     17  C   UNL     1     -10.817   5.584 -16.995  0.00  0.00    +0.149 C 
ATOM     18  C   UNL     1     -11.340   3.165 -16.946  0.00  0.00    +0.050 A 
ATOM     19  C   UNL     1     -10.119   2.584 -17.327  0.00  0.00    +0.027 A 
ENDROOT
BRANCH  10  20
ATOM     20  O   UNL     1     -17.443   6.338 -15.126  0.00  0.00    -0.506 OA
ATOM     21  H   UNL     1     -17.454   6.384 -14.191  0.00  0.00    +0.292 HD
ENDBRANCH  10  20
BRANCH  13  22
ATOM     22  O   UNL     1     -12.844   7.276 -18.087  0.00  0.00    -0.506 OA
ATOM     23  H   UNL     1     -12.336   6.597 -18.486  0.00  0.00    +0.292 HD
ENDBRANCH  13  22
TORSDOF 2
ENDMDL
MODEL 5
REMARK VINA RESULT:      -6.9     15.339     18.088
REMARK  Name = min_compound987.pdb
REMARK  4 active torsions:
REMARK  status: ('A' for Active; 'I' for Inactive)
REMARK    1  A    between atoms: _6  and  _21
REMARK    2  A    between atoms: _7  and  _20
REMARK    3  A    between atoms: _14  and  _15
REMARK    4  A    between atoms: _18  and  _19
REMARK                            x       y       z     vdW  Elec       q    Type
REMARK                         _______ _______ _______ _____ _____    ______ ____
ROOT
ATOM      1  C   UNL     1     -10.341   1.052 -15.580  0.00  0.00    +0.005 A 
ATOM      2  C   UNL     1     -10.279   0.298 -16.755  0.00  0.00    -0.050 A 
ATOM      3  C   UNL     1      -9.293  -0.823 -16.888  0.00  0.00    +0.044 C 
ATOM      4  C   UNL     1     -11.106   0.639 -17.837  0.00  0.00    +0.014 A 
ATOM      5  C   UNL     1     -12.009   1.721 -17.730  0.00  0.00    +0.008 A 
ATOM      6  C   UNL     1     -12.966   2.306 -18.618  0.00  0.00    +0.008 A 
ATOM      7  C   UNL     1     -13.366   1.954 -19.912  0.00  0.00    +0.011 A 
ATOM      8  C   UNL     1     -14.335   2.714 -20.558  0.00  0.00    +0.013 A 
ATOM      9  C   UNL     1     -14.885   3.889 -20.020  0.00  0.00    +0.029 A 
ATOM     10  C   UNL     1     -15.859   4.595 -20.804  0.00  0.00    +0.125 A 
ATOM     11  C   UNL     1     -16.292   5.790 -20.219  0.00  0.00    +0.049 A 
ATOM     12  C   UNL     1     -15.806   6.290 -18.997  0.00  0.00    +0.049 A 
ATOM     13  C   UNL     1     -14.856   5.641 -18.191  0.00  0.00    +0.127 A 
ATOM     14  C   UNL     1     -14.433   4.351 -18.707  0.00  0.00    +0.051 A 
ATOM     15  C   UNL     1     -13.530   3.435 -18.004  0.00  0.00    +0.061 A 
ATOM     16  N   UNL     1     -13.078   3.365 -16.686  0.00  0.00    -0.342 N 
ATOM     17  C   UNL     1     -13.709   3.984 -15.540  0.00  0.00    +0.149 C 
ATOM     18  C   UNL     1     -12.065   2.429 -16.541  0.00  0.00    +0.050 A 
ATOM     19  C   UNL     1     -11.238   2.118 -15.448  0.00  0.00    +0.027 A 
ENDROOT
BRANCH  10  20
ATOM     20  O   UNL     1     -16.331   4.223 -21.945  0.00  0.00    -0.506 OA
ATOM     21  H   UNL     1     -15.747   4.025 -22.651  0.00  0.00    +0.292 HD
ENDBRANCH  10  20
BRANCH  13  22
ATOM     22  O   UNL     1     -14.426   6.241 -17.139  0.00  0.00    -0.506 OA
ATOM     23  H   UNL     1     -14.627   7.146 -17.001  0.00  0.00    +0.292 HD
ENDBRANCH  13  22
TORSDOF 2
ENDMDL
MODEL 6
REMARK VINA RESULT:      -6.9     14.713     17.037
REMARK  Name = min_compound987.pdb
REMARK  4 active torsions:
REMARK  status: ('A' for Active; 'I' for Inactive)
REMARK    1  A    between atoms: _6  and  _21
REMARK    2  A    between atoms: _7  and  _20
REMARK    3  A    between atoms: _14  and  _15
REMARK    4  A    between atoms: _18  and  _19
REMARK                            x       y       z     vdW  Elec       q    Type
REMARK                         _______ _______ _______ _____ _____    ______ ____
ROOT
ATOM      1  C   UNL     1     -11.936   1.979 -17.941  0.00  0.00    +0.005 A 
ATOM      2  C   UNL     1     -12.534   1.311 -16.870  0.00  0.00    -0.050 A 
ATOM      3  C   UNL     1     -12.335  -0.164 -16.688  0.00  0.00    +0.044 C 
ATOM      4  C   UNL     1     -13.375   2.020 -15.998  0.00  0.00    +0.014 A 
ATOM      5  C   UNL     1     -13.598   3.402 -16.189  0.00  0.00    +0.008 A 
ATOM      6  C   UNL     1     -14.370   4.389 -15.498  0.00  0.00    +0.008 A 
ATOM      7  C   UNL     1     -15.146   4.310 -14.337  0.00  0.00    +0.011 A 
ATOM      8  C   UNL     1     -15.806   5.445 -13.878  0.00  0.00    +0.013 A 
ATOM      9  C   UNL     1     -15.815   6.668 -14.568  0.00  0.00    +0.029 A 
ATOM     10  C   UNL     1     -16.559   7.756 -13.996  0.00  0.00    +0.125 A 
ATOM     11  C   UNL     1     -16.570   8.908 -14.792  0.00  0.00    +0.049 A 
ATOM     12  C   UNL     1     -15.950   9.001 -16.051  0.00  0.00    +0.049 A 
ATOM     13  C   UNL     1     -15.211   7.970 -16.655  0.00  0.00    +0.127 A 
ATOM     14  C   UNL     1     -15.092   6.776 -15.835  0.00  0.00    +0.051 A 
ATOM     15  C   UNL     1     -14.289   5.604 -16.194  0.00  0.00    +0.061 A 
ATOM     16  N   UNL     1     -13.292   5.385 -17.145  0.00  0.00    -0.342 N 
ATOM     17  C   UNL     1     -12.499   6.408 -17.793  0.00  0.00    +0.149 C 
ATOM     18  C   UNL     1     -12.966   4.040 -17.245  0.00  0.00    +0.050 A 
ATOM     19  C   UNL     1     -12.131   3.352 -18.141  0.00  0.00    +0.027 A 
ENDROOT
BRANCH  10  20
ATOM     20  O   UNL     1     -17.181   7.741 -12.867  0.00  0.00    -0.506 OA
ATOM     21  H   UNL     1     -16.730   7.486 -12.088  0.00  0.00    +0.292 HD
ENDBRANCH  10  20
BRANCH  13  22
ATOM     22  O   UNL     1     -14.767   8.147 -17.848  0.00  0.00    -0.506 OA
ATOM     23  H   UNL     1     -13.845   8.114 -18.014  0.00  0.00    +0.292 HD
ENDBRANCH  13  22
TORSDOF 2
ENDMDL
MODEL 7
REMARK VINA RESULT:      -6.6      4.627      6.745
REMARK  Name = min_compound987.pdb
REMARK  4 active torsions:
REMARK  status: ('A' for Active; 'I' for Inactive)
REMARK    1  A    between atoms: _6  and  _21
REMARK    2  A    between atoms: _7  and  _20
REMARK    3  A    between atoms: _14  and  _15
REMARK    4  A    between atoms: _18  and  _19
REMARK                            x       y       z     vdW  Elec       q    Type
REMARK                         _______ _______ _______ _____ _____    ______ ____
ROOT
ATOM      1  C   UNL     1     -17.900   4.430  -9.555  0.00  0.00    +0.005 A 
ATOM      2  C   UNL     1     -17.290   3.458 -10.352  0.00  0.00    -0.050 A 
ATOM      3  C   UNL     1     -17.309   3.578 -11.846  0.00  0.00    +0.044 C 
ATOM      4  C   UNL     1     -16.709   2.333  -9.744  0.00  0.00    +0.014 A 
ATOM      5  C   UNL     1     -16.723   2.196  -8.337  0.00  0.00    +0.008 A 
ATOM      6  C   UNL     1     -16.229   1.205  -7.431  0.00  0.00    +0.008 A 
ATOM      7  C   UNL     1     -15.503   0.030  -7.651  0.00  0.00    +0.011 A 
ATOM      8  C   UNL     1     -15.147  -0.766  -6.567  0.00  0.00    +0.013 A 
ATOM      9  C   UNL     1     -15.556  -0.506  -5.248  0.00  0.00    +0.029 A 
ATOM     10  C   UNL     1     -15.141  -1.424  -4.224  0.00  0.00    +0.125 A 
ATOM     11  C   UNL     1     -15.658  -1.125  -2.959  0.00  0.00    +0.049 A 
ATOM     12  C   UNL     1     -16.532  -0.054  -2.698  0.00  0.00    +0.049 A 
ATOM     13  C   UNL     1     -16.968   0.872  -3.661  0.00  0.00    +0.127 A 
ATOM     14  C   UNL     1     -16.394   0.662  -4.979  0.00  0.00    +0.051 A 
ATOM     15  C   UNL     1     -16.609   1.549  -6.125  0.00  0.00    +0.061 A 
ATOM     16  N   UNL     1     -17.112   2.844  -6.248  0.00  0.00    -0.342 N 
ATOM     17  C   UNL     1     -17.202   3.823  -5.185  0.00  0.00    +0.149 C 
ATOM     18  C   UNL     1     -17.313   3.193  -7.576  0.00  0.00    +0.050 A 
ATOM     19  C   UNL     1     -17.913   4.321  -8.159  0.00  0.00    +0.027 A 
ENDROOT
BRANCH  10  20
ATOM     20  O   UNL     1     -14.371  -2.446  -4.386  0.00  0.00    -0.506 OA
ATOM     21  H   UNL     1     -13.690  -2.621  -3.768  0.00  0.00    +0.292 HD
ENDBRANCH  10  20
BRANCH  13  22
ATOM     22  O   UNL     1     -17.837   1.755  -3.318  0.00  0.00    -0.506 OA
ATOM     23  H   UNL     1     -18.187   2.341  -3.960  0.00  0.00    +0.292 HD
ENDBRANCH  13  22
TORSDOF 2
ENDMDL
MODEL 8
REMARK VINA RESULT:      -6.6     15.230     18.415
REMARK  Name = min_compound987.pdb
REMARK  4 active torsions:
REMARK  status: ('A' for Active; 'I' for Inactive)
REMARK    1  A    between atoms: _6  and  _21
REMARK    2  A    between atoms: _7  and  _20
REMARK    3  A    between atoms: _14  and  _15
REMARK    4  A    between atoms: _18  and  _19
REMARK                            x       y       z     vdW  Elec       q    Type
REMARK                         _______ _______ _______ _____ _____    ______ ____
ROOT
ATOM      1  C   UNL     1     -13.458   2.652 -16.513  0.00  0.00    +0.005 A 
ATOM      2  C   UNL     1     -13.471   2.904 -17.887  0.00  0.00    -0.050 A 
ATOM      3  C   UNL     1     -12.895   1.909 -18.848  0.00  0.00    +0.044 C 
ATOM      4  C   UNL     1     -13.974   4.127 -18.358  0.00  0.00    +0.014 A 
ATOM      5  C   UNL     1     -14.483   5.086 -17.452  0.00  0.00    +0.008 A 
ATOM      6  C   UNL     1     -15.056   6.388 -17.603  0.00  0.00    +0.008 A 
ATOM      7  C   UNL     1     -15.352   7.143 -18.742  0.00  0.00    +0.011 A 
ATOM      8  C   UNL     1     -15.915   8.407 -18.597  0.00  0.00    +0.013 A 
ATOM      9  C   UNL     1     -16.127   9.022 -17.352  0.00  0.00    +0.029 A 
ATOM     10  C   UNL     1     -16.692  10.343 -17.344  0.00  0.00    +0.125 A 
ATOM     11  C   UNL     1     -16.795  10.902 -16.065  0.00  0.00    +0.049 A 
ATOM     12  C   UNL     1     -16.359  10.264 -14.890  0.00  0.00    +0.049 A 
ATOM     13  C   UNL     1     -15.801   8.975 -14.841  0.00  0.00    +0.127 A 
ATOM     14  C   UNL     1     -15.749   8.310 -16.132  0.00  0.00    +0.051 A 
ATOM     15  C   UNL     1     -15.306   6.927 -16.332  0.00  0.00    +0.061 A 
ATOM     16  N   UNL     1     -15.102   5.856 -15.462  0.00  0.00    -0.342 N 
ATOM     17  C   UNL     1     -15.659   5.724 -14.133  0.00  0.00    +0.149 C 
ATOM     18  C   UNL     1     -14.480   4.791 -16.098  0.00  0.00    +0.050 A 
ATOM     19  C   UNL     1     -13.970   3.581 -15.599  0.00  0.00    +0.027 A 
ENDROOT
BRANCH  10  20
ATOM     20  O   UNL     1     -17.085  11.008 -18.377  0.00  0.00    -0.506 OA
ATOM     21  H   UNL     1     -17.587  11.790 -18.266  0.00  0.00    +0.292 HD
ENDBRANCH  10  20
BRANCH  13  22
ATOM     22  O   UNL     1     -15.360   8.536 -13.717  0.00  0.00    -0.506 OA
ATOM     23  H   UNL     1     -15.571   8.986 -12.923  0.00  0.00    +0.292 HD
ENDBRANCH  13  22
TORSDOF 2
ENDMDL
MODEL 9
REMARK VINA RESULT:      -6.6     14.550     16.501
REMARK  Name = min_compound987.pdb
REMARK  4 active torsions:
REMARK  status: ('A' for Active; 'I' for Inactive)
REMARK    1  A    between atoms: _6  and  _21
REMARK    2  A    between atoms: _7  and  _20
REMARK    3  A    between atoms: _14  and  _15
REMARK    4  A    between atoms: _18  and  _19
REMARK                            x       y       z     vdW  Elec       q    Type
REMARK                         _______ _______ _______ _____ _____    ______ ____
ROOT
ATOM      1  C   UNL     1     -10.048   1.743 -17.303  0.00  0.00    +0.005 A 
ATOM      2  C   UNL     1     -10.641   0.655 -16.659  0.00  0.00    -0.050 A 
ATOM      3  C   UNL     1      -9.880  -0.622 -16.467  0.00  0.00    +0.044 C 
ATOM      4  C   UNL     1     -11.980   0.744 -16.246  0.00  0.00    +0.014 A 
ATOM      5  C   UNL     1     -12.714   1.933 -16.461  0.00  0.00    +0.008 A 
ATOM      6  C   UNL     1     -14.054   2.339 -16.164  0.00  0.00    +0.008 A 
ATOM      7  C   UNL     1     -15.095   1.683 -15.499  0.00  0.00    +0.011 A 
ATOM      8  C   UNL     1     -16.321   2.323 -15.350  0.00  0.00    +0.013 A 
ATOM      9  C   UNL     1     -16.615   3.575 -15.914  0.00  0.00    +0.029 A 
ATOM     10  C   UNL     1     -17.931   4.112 -15.707  0.00  0.00    +0.125 A 
ATOM     11  C   UNL     1     -18.153   5.325 -16.368  0.00  0.00    +0.049 A 
ATOM     12  C   UNL     1     -17.205   5.958 -17.193  0.00  0.00    +0.049 A 
ATOM     13  C   UNL     1     -15.906   5.477 -17.429  0.00  0.00    +0.127 A 
ATOM     14  C   UNL     1     -15.588   4.262 -16.697  0.00  0.00    +0.051 A 
ATOM     15  C   UNL     1     -14.271   3.620 -16.693  0.00  0.00    +0.061 A 
ATOM     16  N   UNL     1     -13.001   4.046 -17.083  0.00  0.00    -0.342 N 
ATOM     17  C   UNL     1     -12.581   5.422 -17.248  0.00  0.00    +0.149 C 
ATOM     18  C   UNL     1     -12.086   3.003 -17.077  0.00  0.00    +0.050 A 
ATOM     19  C   UNL     1     -10.752   2.935 -17.513  0.00  0.00    +0.027 A 
ENDROOT
BRANCH  10  20
ATOM     20  O   UNL     1     -18.865   3.580 -14.995  0.00  0.00    -0.506 OA
ATOM     21  H   UNL     1     -19.737   3.920 -15.037  0.00  0.00    +0.292 HD
ENDBRANCH  10  20
BRANCH  13  22
ATOM     22  O   UNL     1     -15.162   6.099 -18.272  0.00  0.00    -0.506 OA
ATOM     23  H   UNL     1     -14.482   6.667 -17.967  0.00  0.00    +0.292 HD
ENDBRANCH  13  22
TORSDOF 2
ENDMDL
