MODEL 1
REMARK VINA RESULT:      -5.7      0.000      0.000
REMARK  Name = min_compound965.pdb
REMARK  9 active torsions:
REMARK  status: ('A' for Active; 'I' for Inactive)
REMARK    1  A    between atoms: _1  and  _3
REMARK    2  A    between atoms: _1  and  _12
REMARK    3  A    between atoms: _6  and  _8
REMARK    4  A    between atoms: _7  and  _13
REMARK    5  A    between atoms: _8  and  _14
REMARK    6  A    between atoms: _11  and  _15
REMARK    7  A    between atoms: _11  and  _16
REMARK    8  A    between atoms: _15  and  _18
REMARK    9  A    between atoms: _16  and  _17
REMARK                            x       y       z     vdW  Elec       q    Type
REMARK                         _______ _______ _______ _____ _____    ______ ____
ROOT
ATOM      1  N   UNL     1     -13.482   3.780 -14.770  0.00  0.00    -0.266 N 
ATOM      2  H   UNL     1     -13.261   4.040 -13.833  0.00  0.00    +0.156 HD
ATOM      3  C   UNL     1     -14.809   3.450 -14.968  0.00  0.00    +0.307 C 
ATOM      4  N   UNL     1     -15.724   4.177 -14.203  0.00  0.00    -0.278 N 
ATOM      5  O   UNL     1     -15.183   2.589 -15.764  0.00  0.00    -0.252 OA
ENDROOT
BRANCH   1   8
ATOM      6  C   UNL     1     -10.438   1.847 -16.071  0.00  0.00    +0.122 A 
ATOM      7  C   UNL     1     -11.547   2.327 -15.337  0.00  0.00    +0.072 A 
ATOM      8  C   UNL     1     -12.406   3.513 -15.668  0.00  0.00    +0.080 A 
ATOM      9  C   UNL     1     -12.190   4.282 -16.856  0.00  0.00    +0.141 A 
ATOM     10  C   UNL     1     -11.068   3.790 -17.596  0.00  0.00    +0.051 A 
ATOM     11  C   UNL     1     -10.217   2.618 -17.218  0.00  0.00    +0.049 A 
BRANCH   6  12
ATOM     12  O   UNL     1      -9.740   0.693 -15.567  0.00  0.00    -0.495 OA
ATOM     13  C   UNL     1     -10.046  -0.621 -16.223  0.00  0.00    +0.277 C 
ENDBRANCH   6  12
BRANCH   9  14
ATOM     14  O   UNL     1     -12.880   5.455 -17.427  0.00  0.00    -0.493 OA
ATOM     15  C   UNL     1     -11.968   6.555 -17.885  0.00  0.00    +0.277 C 
ENDBRANCH   9  14
ENDBRANCH   1   8
BRANCH   4  16
ATOM     16  C   UNL     1     -15.373   5.336 -13.383  0.00  0.00    +0.136 C 
BRANCH  16  17
ATOM     17  C   UNL     1     -14.916   4.854 -12.035  0.00  0.00    -0.016 C 
ATOM     18  C   UNL     1     -15.672   4.880 -10.929  0.00  0.00    +0.005 C 
ENDBRANCH  16  17
ENDBRANCH   4  16
BRANCH   4  19
ATOM     19  C   UNL     1     -17.139   4.009 -14.549  0.00  0.00    +0.136 C 
BRANCH  19  20
ATOM     20  C   UNL     1     -17.849   3.145 -13.553  0.00  0.00    -0.016 C 
ATOM     21  C   UNL     1     -18.698   3.602 -12.623  0.00  0.00    +0.005 C 
ENDBRANCH  19  20
ENDBRANCH   4  19
TORSDOF 7
ENDMDL
MODEL 2
REMARK VINA RESULT:      -5.7      7.661     10.843
REMARK  Name = min_compound965.pdb
REMARK  9 active torsions:
REMARK  status: ('A' for Active; 'I' for Inactive)
REMARK    1  A    between atoms: _1  and  _3
REMARK    2  A    between atoms: _1  and  _12
REMARK    3  A    between atoms: _6  and  _8
REMARK    4  A    between atoms: _7  and  _13
REMARK    5  A    between atoms: _8  and  _14
REMARK    6  A    between atoms: _11  and  _15
REMARK    7  A    between atoms: _11  and  _16
REMARK    8  A    between atoms: _15  and  _18
REMARK    9  A    between atoms: _16  and  _17
REMARK                            x       y       z     vdW  Elec       q    Type
REMARK                         _______ _______ _______ _____ _____    ______ ____
ROOT
ATOM      1  N   UNL     1     -15.789   1.305  -6.176  0.00  0.00    -0.266 N 
ATOM      2  H   UNL     1     -15.278   1.981  -5.649  0.00  0.00    +0.156 HD
ATOM      3  C   UNL     1     -15.332   0.009  -6.030  0.00  0.00    +0.307 C 
ATOM      4  N   UNL     1     -14.841  -0.309  -4.761  0.00  0.00    -0.278 N 
ATOM      5  O   UNL     1     -15.355  -0.825  -6.933  0.00  0.00    -0.252 OA
ENDROOT
BRANCH   1   8
ATOM      6  C   UNL     1     -16.718   2.963  -9.505  0.00  0.00    +0.122 A 
ATOM      7  C   UNL     1     -16.055   2.434  -8.374  0.00  0.00    +0.072 A 
ATOM      8  C   UNL     1     -16.685   1.772  -7.183  0.00  0.00    +0.080 A 
ATOM      9  C   UNL     1     -18.100   1.565  -7.106  0.00  0.00    +0.141 A 
ATOM     10  C   UNL     1     -18.765   2.101  -8.255  0.00  0.00    +0.051 A 
ATOM     11  C   UNL     1     -18.103   2.779  -9.413  0.00  0.00    +0.049 A 
BRANCH   6  12
ATOM     12  O   UNL     1     -15.919   3.571 -10.537  0.00  0.00    -0.495 OA
ATOM     13  C   UNL     1     -15.879   5.070 -10.567  0.00  0.00    +0.277 C 
ENDBRANCH   6  12
BRANCH   9  14
ATOM     14  O   UNL     1     -18.964   0.937  -6.089  0.00  0.00    -0.493 OA
ATOM     15  C   UNL     1     -19.036  -0.559  -6.169  0.00  0.00    +0.277 C 
ENDBRANCH   9  14
ENDBRANCH   1   8
BRANCH   4  16
ATOM     16  C   UNL     1     -14.954   0.563  -3.593  0.00  0.00    +0.136 C 
BRANCH  16  17
ATOM     17  C   UNL     1     -13.639   1.256  -3.377  0.00  0.00    -0.016 C 
ATOM     18  C   UNL     1     -13.424   2.557  -3.613  0.00  0.00    +0.005 C 
ENDBRANCH  16  17
ENDBRANCH   4  16
BRANCH   4  19
ATOM     19  C   UNL     1     -14.559  -1.726  -4.511  0.00  0.00    +0.136 C 
BRANCH  19  20
ATOM     20  C   UNL     1     -14.863  -2.105  -3.094  0.00  0.00    -0.016 C 
ATOM     21  C   UNL     1     -14.589  -3.300  -2.554  0.00  0.00    +0.005 C 
ENDBRANCH  19  20
ENDBRANCH   4  19
TORSDOF 7
ENDMDL
MODEL 3
REMARK VINA RESULT:      -5.6      2.023      6.103
REMARK  Name = min_compound965.pdb
REMARK  9 active torsions:
REMARK  status: ('A' for Active; 'I' for Inactive)
REMARK    1  A    between atoms: _1  and  _3
REMARK    2  A    between atoms: _1  and  _12
REMARK    3  A    between atoms: _6  and  _8
REMARK    4  A    between atoms: _7  and  _13
REMARK    5  A    between atoms: _8  and  _14
REMARK    6  A    between atoms: _11  and  _15
REMARK    7  A    between atoms: _11  and  _16
REMARK    8  A    between atoms: _15  and  _18
REMARK    9  A    between atoms: _16  and  _17
REMARK                            x       y       z     vdW  Elec       q    Type
REMARK                         _______ _______ _______ _____ _____    ______ ____
ROOT
ATOM      1  N   UNL     1     -13.486   3.776 -15.623  0.00  0.00    -0.266 N 
ATOM      2  H   UNL     1     -12.634   4.288 -15.718  0.00  0.00    +0.156 HD
ATOM      3  C   UNL     1     -13.485   2.551 -16.263  0.00  0.00    +0.307 C 
ATOM      4  N   UNL     1     -12.257   1.884 -16.269  0.00  0.00    -0.278 N 
ATOM      5  O   UNL     1     -14.482   2.058 -16.787  0.00  0.00    -0.252 OA
ENDROOT
BRANCH   1   8
ATOM      6  C   UNL     1     -16.178   4.600 -13.022  0.00  0.00    +0.122 A 
ATOM      7  C   UNL     1     -15.088   4.065 -13.745  0.00  0.00    +0.072 A 
ATOM      8  C   UNL     1     -14.631   4.461 -15.119  0.00  0.00    +0.080 A 
ATOM      9  C   UNL     1     -15.274   5.515 -15.844  0.00  0.00    +0.141 A 
ATOM     10  C   UNL     1     -16.376   6.055 -15.106  0.00  0.00    +0.051 A 
ATOM     11  C   UNL     1     -16.818   5.614 -13.746  0.00  0.00    +0.049 A 
BRANCH   6  12
ATOM     12  O   UNL     1     -16.453   4.065 -11.714  0.00  0.00    -0.495 OA
ATOM     13  C   UNL     1     -15.614   4.580 -10.583  0.00  0.00    +0.277 C 
ENDBRANCH   6  12
BRANCH   9  14
ATOM     14  O   UNL     1     -15.025   6.114 -17.170  0.00  0.00    -0.493 OA
ATOM     15  C   UNL     1     -14.265   7.407 -17.138  0.00  0.00    +0.277 C 
ENDBRANCH   9  14
ENDBRANCH   1   8
BRANCH   4  16
ATOM     16  C   UNL     1     -11.083   2.314 -15.511  0.00  0.00    +0.136 C 
BRANCH  16  17
ATOM     17  C   UNL     1     -10.273   3.249 -16.363  0.00  0.00    -0.016 C 
ATOM     18  C   UNL     1     -10.001   4.520 -16.039  0.00  0.00    +0.005 C 
ENDBRANCH  16  17
ENDBRANCH   4  16
BRANCH   4  19
ATOM     19  C   UNL     1     -12.276   0.496 -16.740  0.00  0.00    +0.136 C 
BRANCH  19  20
ATOM     20  C   UNL     1     -11.012  -0.223 -16.381  0.00  0.00    -0.016 C 
ATOM     21  C   UNL     1     -10.151  -0.734 -17.271  0.00  0.00    +0.005 C 
ENDBRANCH  19  20
ENDBRANCH   4  19
TORSDOF 7
ENDMDL
MODEL 4
REMARK VINA RESULT:      -5.5      6.192      9.539
REMARK  Name = min_compound965.pdb
REMARK  9 active torsions:
REMARK  status: ('A' for Active; 'I' for Inactive)
REMARK    1  A    between atoms: _1  and  _3
REMARK    2  A    between atoms: _1  and  _12
REMARK    3  A    between atoms: _6  and  _8
REMARK    4  A    between atoms: _7  and  _13
REMARK    5  A    between atoms: _8  and  _14
REMARK    6  A    between atoms: _11  and  _15
REMARK    7  A    between atoms: _11  and  _16
REMARK    8  A    between atoms: _15  and  _18
REMARK    9  A    between atoms: _16  and  _17
REMARK                            x       y       z     vdW  Elec       q    Type
REMARK                         _______ _______ _______ _____ _____    ______ ____
ROOT
ATOM      1  N   UNL     1     -16.324   1.861  -7.889  0.00  0.00    -0.266 N 
ATOM      2  H   UNL     1     -15.950   0.968  -8.130  0.00  0.00    +0.156 HD
ATOM      3  C   UNL     1     -16.426   2.084  -6.529  0.00  0.00    +0.307 C 
ATOM      4  N   UNL     1     -15.415   1.510  -5.755  0.00  0.00    -0.278 N 
ATOM      5  O   UNL     1     -17.327   2.745  -6.015  0.00  0.00    -0.252 OA
ENDROOT
BRANCH   1   8
ATOM      6  C   UNL     1     -16.403   4.370 -10.787  0.00  0.00    +0.122 A 
ATOM      7  C   UNL     1     -16.039   3.525  -9.713  0.00  0.00    +0.072 A 
ATOM      8  C   UNL     1     -16.945   2.632  -8.917  0.00  0.00    +0.080 A 
ATOM      9  C   UNL     1     -18.338   2.517  -9.225  0.00  0.00    +0.141 A 
ATOM     10  C   UNL     1     -18.700   3.372 -10.314  0.00  0.00    +0.051 A 
ATOM     11  C   UNL     1     -17.771   4.271 -11.068  0.00  0.00    +0.049 A 
BRANCH   6  12
ATOM     12  O   UNL     1     -15.372   5.158 -11.409  0.00  0.00    -0.495 OA
ATOM     13  C   UNL     1     -14.984   4.781 -12.808  0.00  0.00    +0.277 C 
ENDBRANCH   6  12
BRANCH   9  14
ATOM     14  O   UNL     1     -19.430   1.716  -8.637  0.00  0.00    -0.493 OA
ATOM     15  C   UNL     1     -20.456   2.515  -7.889  0.00  0.00    +0.277 C 
ENDBRANCH   9  14
ENDBRANCH   1   8
BRANCH   4  16
ATOM     16  C   UNL     1     -14.218   0.875  -6.304  0.00  0.00    +0.136 C 
BRANCH  16  17
ATOM     17  C   UNL     1     -14.421  -0.613  -6.316  0.00  0.00    -0.016 C 
ATOM     18  C   UNL     1     -14.721  -1.342  -5.232  0.00  0.00    +0.005 C 
ENDBRANCH  16  17
ENDBRANCH   4  16
BRANCH   4  19
ATOM     19  C   UNL     1     -15.371   1.911  -4.345  0.00  0.00    +0.136 C 
BRANCH  19  20
ATOM     20  C   UNL     1     -13.967   2.176  -3.893  0.00  0.00    -0.016 C 
ATOM     21  C   UNL     1     -13.241   1.335  -3.145  0.00  0.00    +0.005 C 
ENDBRANCH  19  20
ENDBRANCH   4  19
TORSDOF 7
ENDMDL
MODEL 5
REMARK VINA RESULT:      -5.4     11.891     14.509
REMARK  Name = min_compound965.pdb
REMARK  9 active torsions:
REMARK  status: ('A' for Active; 'I' for Inactive)
REMARK    1  A    between atoms: _1  and  _3
REMARK    2  A    between atoms: _1  and  _12
REMARK    3  A    between atoms: _6  and  _8
REMARK    4  A    between atoms: _7  and  _13
REMARK    5  A    between atoms: _8  and  _14
REMARK    6  A    between atoms: _11  and  _15
REMARK    7  A    between atoms: _11  and  _16
REMARK    8  A    between atoms: _15  and  _18
REMARK    9  A    between atoms: _16  and  _17
REMARK                            x       y       z     vdW  Elec       q    Type
REMARK                         _______ _______ _______ _____ _____    ______ ____
ROOT
ATOM      1  N   UNL     1     -14.668  -2.624  -3.649  0.00  0.00    -0.266 N 
ATOM      2  H   UNL     1     -14.106  -2.985  -4.390  0.00  0.00    +0.156 HD
ATOM      3  C   UNL     1     -14.744  -1.245  -3.616  0.00  0.00    +0.307 C 
ATOM      4  N   UNL     1     -14.736  -0.619  -4.865  0.00  0.00    -0.278 N 
ATOM      5  O   UNL     1     -14.825  -0.593  -2.576  0.00  0.00    -0.252 OA
ENDROOT
BRANCH   1   8
ATOM      6  C   UNL     1     -14.062  -5.014  -0.713  0.00  0.00    +0.122 A 
ATOM      7  C   UNL     1     -13.941  -4.122  -1.804  0.00  0.00    +0.072 A 
ATOM      8  C   UNL     1     -15.056  -3.513  -2.603  0.00  0.00    +0.080 A 
ATOM      9  C   UNL     1     -16.428  -3.763  -2.280  0.00  0.00    +0.141 A 
ATOM     10  C   UNL     1     -16.545  -4.665  -1.174  0.00  0.00    +0.051 A 
ATOM     11  C   UNL     1     -15.406  -5.273  -0.418  0.00  0.00    +0.049 A 
BRANCH   6  12
ATOM     12  O   UNL     1     -12.856  -5.492  -0.091  0.00  0.00    -0.495 OA
ATOM     13  C   UNL     1     -12.997  -6.124   1.262  0.00  0.00    +0.277 C 
ENDBRANCH   6  12
BRANCH   9  14
ATOM     14  O   UNL     1     -17.696  -3.289  -2.868  0.00  0.00    -0.493 OA
ATOM     15  C   UNL     1     -18.212  -2.006  -2.287  0.00  0.00    +0.277 C 
ENDBRANCH   9  14
ENDBRANCH   1   8
BRANCH   4  16
ATOM     16  C   UNL     1     -14.832  -1.327  -6.141  0.00  0.00    +0.136 C 
BRANCH  16  17
ATOM     17  C   UNL     1     -15.578  -0.464  -7.118  0.00  0.00    -0.016 C 
ATOM     18  C   UNL     1     -16.596  -0.891  -7.877  0.00  0.00    +0.005 C 
ENDBRANCH  16  17
ENDBRANCH   4  16
BRANCH   4  19
ATOM     19  C   UNL     1     -15.039   0.816  -4.873  0.00  0.00    +0.136 C 
BRANCH  19  20
ATOM     20  C   UNL     1     -13.806   1.639  -4.657  0.00  0.00    -0.016 C 
ATOM     21  C   UNL     1     -13.629   2.483  -3.631  0.00  0.00    +0.005 C 
ENDBRANCH  19  20
ENDBRANCH   4  19
TORSDOF 7
ENDMDL
MODEL 6
REMARK VINA RESULT:      -5.4      2.633      6.470
REMARK  Name = min_compound965.pdb
REMARK  9 active torsions:
REMARK  status: ('A' for Active; 'I' for Inactive)
REMARK    1  A    between atoms: _1  and  _3
REMARK    2  A    between atoms: _1  and  _12
REMARK    3  A    between atoms: _6  and  _8
REMARK    4  A    between atoms: _7  and  _13
REMARK    5  A    between atoms: _8  and  _14
REMARK    6  A    between atoms: _11  and  _15
REMARK    7  A    between atoms: _11  and  _16
REMARK    8  A    between atoms: _15  and  _18
REMARK    9  A    between atoms: _16  and  _17
REMARK                            x       y       z     vdW  Elec       q    Type
REMARK                         _______ _______ _______ _____ _____    ______ ____
ROOT
ATOM      1  N   UNL     1     -13.261   3.558 -16.268  0.00  0.00    -0.266 N 
ATOM      2  H   UNL     1     -13.942   2.831 -16.209  0.00  0.00    +0.156 HD
ATOM      3  C   UNL     1     -11.994   3.181 -15.866  0.00  0.00    +0.307 C 
ATOM      4  N   UNL     1     -11.645   1.861 -16.160  0.00  0.00    -0.278 N 
ATOM      5  O   UNL     1     -11.208   3.938 -15.298  0.00  0.00    -0.252 OA
ENDROOT
BRANCH   1   8
ATOM      6  C   UNL     1     -15.470   6.616 -15.585  0.00  0.00    +0.122 A 
ATOM      7  C   UNL     1     -14.853   5.344 -15.594  0.00  0.00    +0.072 A 
ATOM      8  C   UNL     1     -13.717   4.895 -16.467  0.00  0.00    +0.080 A 
ATOM      9  C   UNL     1     -13.090   5.789 -17.393  0.00  0.00    +0.141 A 
ATOM     10  C   UNL     1     -13.717   7.075 -17.378  0.00  0.00    +0.051 A 
ATOM     11  C   UNL     1     -14.868   7.477 -16.510  0.00  0.00    +0.049 A 
BRANCH   6  12
ATOM     12  O   UNL     1     -16.560   6.834 -14.670  0.00  0.00    -0.495 OA
ATOM     13  C   UNL     1     -17.927   6.430 -15.138  0.00  0.00    +0.277 C 
ENDBRANCH   6  12
BRANCH   9  14
ATOM     14  O   UNL     1     -11.966   5.625 -18.336  0.00  0.00    -0.493 OA
ATOM     15  C   UNL     1     -12.327   5.821 -19.778  0.00  0.00    +0.277 C 
ENDBRANCH   9  14
ENDBRANCH   1   8
BRANCH   4  16
ATOM     16  C   UNL     1     -12.445   0.964 -16.993  0.00  0.00    +0.136 C 
BRANCH  16  17
ATOM     17  C   UNL     1     -12.114   1.219 -18.436  0.00  0.00    -0.016 C 
ATOM     18  C   UNL     1     -12.899   1.900 -19.281  0.00  0.00    +0.005 C 
ENDBRANCH  16  17
ENDBRANCH   4  16
BRANCH   4  19
ATOM     19  C   UNL     1     -10.240   1.499 -15.949  0.00  0.00    +0.136 C 
BRANCH  19  20
ATOM     20  C   UNL     1     -10.091   0.047 -15.611  0.00  0.00    -0.016 C 
ATOM     21  C   UNL     1      -9.414  -0.839 -16.354  0.00  0.00    +0.005 C 
ENDBRANCH  19  20
ENDBRANCH   4  19
TORSDOF 7
ENDMDL
MODEL 7
REMARK VINA RESULT:      -5.1      2.275      6.817
REMARK  Name = min_compound965.pdb
REMARK  9 active torsions:
REMARK  status: ('A' for Active; 'I' for Inactive)
REMARK    1  A    between atoms: _1  and  _3
REMARK    2  A    between atoms: _1  and  _12
REMARK    3  A    between atoms: _6  and  _8
REMARK    4  A    between atoms: _7  and  _13
REMARK    5  A    between atoms: _8  and  _14
REMARK    6  A    between atoms: _11  and  _15
REMARK    7  A    between atoms: _11  and  _16
REMARK    8  A    between atoms: _15  and  _18
REMARK    9  A    between atoms: _16  and  _17
REMARK                            x       y       z     vdW  Elec       q    Type
REMARK                         _______ _______ _______ _____ _____    ______ ____
ROOT
ATOM      1  N   UNL     1     -14.302   3.968 -14.211  0.00  0.00    -0.266 N 
ATOM      2  H   UNL     1     -13.394   3.765 -13.852  0.00  0.00    +0.156 HD
ATOM      3  C   UNL     1     -14.296   4.590 -15.445  0.00  0.00    +0.307 C 
ATOM      4  N   UNL     1     -13.269   4.196 -16.305  0.00  0.00    -0.278 N 
ATOM      5  O   UNL     1     -15.132   5.425 -15.788  0.00  0.00    -0.252 OA
ENDROOT
BRANCH   1   8
ATOM      6  C   UNL     1     -16.245   4.639 -10.975  0.00  0.00    +0.122 A 
ATOM      7  C   UNL     1     -15.284   4.575 -12.010  0.00  0.00    +0.072 A 
ATOM      8  C   UNL     1     -15.416   3.865 -13.326  0.00  0.00    +0.080 A 
ATOM      9  C   UNL     1     -16.623   3.185 -13.688  0.00  0.00    +0.141 A 
ATOM     10  C   UNL     1     -17.593   3.255 -12.638  0.00  0.00    +0.051 A 
ATOM     11  C   UNL     1     -17.413   3.951 -11.326  0.00  0.00    +0.049 A 
BRANCH   6  12
ATOM     12  O   UNL     1     -15.909   5.369  -9.781  0.00  0.00    -0.495 OA
ATOM     13  C   UNL     1     -16.932   6.341  -9.272  0.00  0.00    +0.277 C 
ENDBRANCH   6  12
BRANCH   9  14
ATOM     14  O   UNL     1     -17.027   2.441 -14.898  0.00  0.00    -0.493 OA
ATOM     15  C   UNL     1     -18.103   3.103 -15.706  0.00  0.00    +0.277 C 
ENDBRANCH   9  14
ENDBRANCH   1   8
BRANCH   4  16
ATOM     16  C   UNL     1     -12.358   3.082 -16.044  0.00  0.00    +0.136 C 
BRANCH  16  17
ATOM     17  C   UNL     1     -12.574   2.025 -17.089  0.00  0.00    -0.016 C 
ATOM     18  C   UNL     1     -12.470   0.709 -16.863  0.00  0.00    +0.005 C 
ENDBRANCH  16  17
ENDBRANCH   4  16
BRANCH   4  19
ATOM     19  C   UNL     1     -13.366   4.668 -17.690  0.00  0.00    +0.136 C 
BRANCH  19  20
ATOM     20  C   UNL     1     -12.304   5.677 -18.002  0.00  0.00    -0.016 C 
ATOM     21  C   UNL     1     -12.524   6.992 -18.138  0.00  0.00    +0.005 C 
ENDBRANCH  19  20
ENDBRANCH   4  19
TORSDOF 7
ENDMDL
MODEL 8
REMARK VINA RESULT:      -5.0     11.697     14.964
REMARK  Name = min_compound965.pdb
REMARK  9 active torsions:
REMARK  status: ('A' for Active; 'I' for Inactive)
REMARK    1  A    between atoms: _1  and  _3
REMARK    2  A    between atoms: _1  and  _12
REMARK    3  A    between atoms: _6  and  _8
REMARK    4  A    between atoms: _7  and  _13
REMARK    5  A    between atoms: _8  and  _14
REMARK    6  A    between atoms: _11  and  _15
REMARK    7  A    between atoms: _11  and  _16
REMARK    8  A    between atoms: _15  and  _18
REMARK    9  A    between atoms: _16  and  _17
REMARK                            x       y       z     vdW  Elec       q    Type
REMARK                         _______ _______ _______ _____ _____    ______ ____
ROOT
ATOM      1  N   UNL     1     -16.103  -2.170  -3.342  0.00  0.00    -0.266 N 
ATOM      2  H   UNL     1     -16.559  -2.565  -4.136  0.00  0.00    +0.156 HD
ATOM      3  C   UNL     1     -14.963  -1.450  -3.645  0.00  0.00    +0.307 C 
ATOM      4  N   UNL     1     -15.002  -0.755  -4.855  0.00  0.00    -0.278 N 
ATOM      5  O   UNL     1     -13.976  -1.402  -2.911  0.00  0.00    -0.252 OA
ENDROOT
BRANCH   1   8
ATOM      6  C   UNL     1     -17.769  -1.838   0.095  0.00  0.00    +0.122 A 
ATOM      7  C   UNL     1     -17.258  -1.633  -1.208  0.00  0.00    +0.072 A 
ATOM      8  C   UNL     1     -16.496  -2.618  -2.046  0.00  0.00    +0.080 A 
ATOM      9  C   UNL     1     -16.243  -3.950  -1.586  0.00  0.00    +0.141 A 
ATOM     10  C   UNL     1     -16.765  -4.152  -0.269  0.00  0.00    +0.051 A 
ATOM     11  C   UNL     1     -17.498  -3.135   0.547  0.00  0.00    +0.049 A 
BRANCH   6  12
ATOM     12  O   UNL     1     -18.466  -0.749   0.728  0.00  0.00    -0.495 OA
ATOM     13  C   UNL     1     -19.020   0.315  -0.172  0.00  0.00    +0.277 C 
ENDBRANCH   6  12
BRANCH   9  14
ATOM     14  O   UNL     1     -15.556  -5.105  -2.197  0.00  0.00    -0.493 OA
ATOM     15  C   UNL     1     -14.058  -5.025  -2.171  0.00  0.00    +0.277 C 
ENDBRANCH   9  14
ENDBRANCH   1   8
BRANCH   4  16
ATOM     16  C   UNL     1     -16.198  -0.611  -5.683  0.00  0.00    +0.136 C 
BRANCH  16  17
ATOM     17  C   UNL     1     -15.844  -0.937  -7.106  0.00  0.00    -0.016 C 
ATOM     18  C   UNL     1     -16.522  -0.493  -8.173  0.00  0.00    +0.005 C 
ENDBRANCH  16  17
ENDBRANCH   4  16
BRANCH   4  19
ATOM     19  C   UNL     1     -13.906   0.189  -5.097  0.00  0.00    +0.136 C 
BRANCH  19  20
ATOM     20  C   UNL     1     -14.261   1.572  -4.644  0.00  0.00    -0.016 C 
ATOM     21  C   UNL     1     -13.661   2.216  -3.634  0.00  0.00    +0.005 C 
ENDBRANCH  19  20
ENDBRANCH   4  19
TORSDOF 7
ENDMDL
MODEL 9
REMARK VINA RESULT:      -5.0      2.467      6.809
REMARK  Name = min_compound965.pdb
REMARK  9 active torsions:
REMARK  status: ('A' for Active; 'I' for Inactive)
REMARK    1  A    between atoms: _1  and  _3
REMARK    2  A    between atoms: _1  and  _12
REMARK    3  A    between atoms: _6  and  _8
REMARK    4  A    between atoms: _7  and  _13
REMARK    5  A    between atoms: _8  and  _14
REMARK    6  A    between atoms: _11  and  _15
REMARK    7  A    between atoms: _11  and  _16
REMARK    8  A    between atoms: _15  and  _18
REMARK    9  A    between atoms: _16  and  _17
REMARK                            x       y       z     vdW  Elec       q    Type
REMARK                         _______ _______ _______ _____ _____    ______ ____
ROOT
ATOM      1  N   UNL     1     -14.657   2.562 -16.648  0.00  0.00    -0.266 N 
ATOM      2  H   UNL     1     -14.770   1.601 -16.889  0.00  0.00    +0.156 HD
ATOM      3  C   UNL     1     -13.548   2.822 -15.865  0.00  0.00    +0.307 C 
ATOM      4  N   UNL     1     -12.433   2.024 -16.128  0.00  0.00    -0.278 N 
ATOM      5  O   UNL     1     -13.519   3.696 -14.999  0.00  0.00    -0.252 OA
ENDROOT
BRANCH   1   8
ATOM      6  C   UNL     1     -16.511   5.398 -18.442  0.00  0.00    +0.122 A 
ATOM      7  C   UNL     1     -15.576   4.431 -18.003  0.00  0.00    +0.072 A 
ATOM      8  C   UNL     1     -15.749   3.449 -16.881  0.00  0.00    +0.080 A 
ATOM      9  C   UNL     1     -16.972   3.371 -16.140  0.00  0.00    +0.141 A 
ATOM     10  C   UNL     1     -17.914   4.350 -16.590  0.00  0.00    +0.051 A 
ATOM     11  C   UNL     1     -17.694   5.332 -17.697  0.00  0.00    +0.049 A 
BRANCH   6  12
ATOM     12  O   UNL     1     -16.137   6.255 -19.536  0.00  0.00    -0.495 OA
ATOM     13  C   UNL     1     -15.279   7.440 -19.205  0.00  0.00    +0.277 C 
ENDBRANCH   6  12
BRANCH   9  14
ATOM     14  O   UNL     1     -17.414   2.507 -15.029  0.00  0.00    -0.493 OA
ATOM     15  C   UNL     1     -16.742   2.784 -13.717  0.00  0.00    +0.277 C 
ENDBRANCH   9  14
ENDBRANCH   1   8
BRANCH   4  16
ATOM     16  C   UNL     1     -12.329   1.102 -17.258  0.00  0.00    +0.136 C 
BRANCH  16  17
ATOM     17  C   UNL     1     -11.754  -0.197 -16.771  0.00  0.00    -0.016 C 
ATOM     18  C   UNL     1     -10.549  -0.667 -17.123  0.00  0.00    +0.005 C 
ENDBRANCH  16  17
ENDBRANCH   4  16
BRANCH   4  19
ATOM     19  C   UNL     1     -11.182   2.422 -15.474  0.00  0.00    +0.136 C 
BRANCH  19  20
ATOM     20  C   UNL     1     -10.335   3.267 -16.375  0.00  0.00    -0.016 C 
ATOM     21  C   UNL     1     -10.270   4.604 -16.320  0.00  0.00    +0.005 C 
ENDBRANCH  19  20
ENDBRANCH   4  19
TORSDOF 7
ENDMDL
