MODEL 1
REMARK VINA RESULT:      -6.5      0.000      0.000
REMARK  Name = min_compound974.pdb
REMARK  3 active torsions:
REMARK  status: ('A' for Active; 'I' for Inactive)
REMARK    1  A    between atoms: _10  and  _18
REMARK    2  A    between atoms: _12  and  _15
REMARK    3  A    between atoms: _15  and  _17
REMARK                            x       y       z     vdW  Elec       q    Type
REMARK                         _______ _______ _______ _____ _____    ______ ____
ROOT
ATOM      1  C   UNL     1     -12.210   1.288 -16.495  0.00  0.00    -0.010 A 
ATOM      2  C   UNL     1     -10.905   1.821 -16.476  0.00  0.00    +0.066 A 
ATOM      3  C   UNL     1      -9.800   0.951 -16.437  0.00  0.00    +0.015 A 
ATOM      4  C   UNL     1      -9.982  -0.432 -16.405  0.00  0.00    +0.001 A 
ATOM      5  C   UNL     1     -11.268  -0.960 -16.412  0.00  0.00    +0.001 A 
ATOM      6  C   UNL     1     -12.373  -0.108 -16.456  0.00  0.00    +0.009 A 
ENDROOT
BRANCH   1  12
ATOM      7  H   UNL     1     -16.370   4.536 -18.870  0.00  0.00    +0.156 HD
ATOM      8  N   UNL     1     -15.572   3.929 -18.758  0.00  0.00    -0.270 N 
ATOM      9  C   UNL     1     -14.790   3.566 -19.810  0.00  0.00    +0.118 C 
ATOM     10  S   UNL     1     -13.531   2.480 -19.266  0.00  0.00    -0.061 S 
ATOM     11  C   UNL     1     -14.027   2.607 -17.616  0.00  0.00    +0.077 C 
ATOM     12  C   UNL     1     -13.442   2.090 -16.529  0.00  0.00    +0.029 C 
ATOM     13  S   UNL     1     -15.035   4.091 -21.361  0.00  0.00    -0.027 S 
ATOM     14  C   UNL     1     -15.255   3.441 -17.521  0.00  0.00    +0.256 C 
ATOM     15  O   UNL     1     -15.897   3.650 -16.505  0.00  0.00    -0.269 OA
ENDBRANCH   1  12
BRANCH   2  16
ATOM     16  C   UNL     1     -10.662   3.288 -16.451  0.00  0.00    +0.337 C 
ATOM     17  O   UNL     1     -10.710   4.061 -17.389  0.00  0.00    -0.245 OA
BRANCH  16  18
ATOM     18  O   UNL     1     -10.327   3.721 -15.219  0.00  0.00    -0.477 OA
ATOM     19  H   UNL     1     -10.856   4.537 -15.104  0.00  0.00    +0.295 HD
ENDBRANCH  16  18
ENDBRANCH   2  16
TORSDOF 3
ENDMDL
MODEL 2
REMARK VINA RESULT:      -6.2      2.077      2.426
REMARK  Name = min_compound974.pdb
REMARK  3 active torsions:
REMARK  status: ('A' for Active; 'I' for Inactive)
REMARK    1  A    between atoms: _10  and  _18
REMARK    2  A    between atoms: _12  and  _15
REMARK    3  A    between atoms: _15  and  _17
REMARK                            x       y       z     vdW  Elec       q    Type
REMARK                         _______ _______ _______ _____ _____    ______ ____
ROOT
ATOM      1  C   UNL     1     -12.003   1.239 -16.919  0.00  0.00    -0.010 A 
ATOM      2  C   UNL     1     -10.785   1.716 -16.393  0.00  0.00    +0.066 A 
ATOM      3  C   UNL     1      -9.903   0.821 -15.760  0.00  0.00    +0.015 A 
ATOM      4  C   UNL     1     -10.226  -0.531 -15.640  0.00  0.00    +0.001 A 
ATOM      5  C   UNL     1     -11.430  -1.003 -16.148  0.00  0.00    +0.001 A 
ATOM      6  C   UNL     1     -12.312  -0.125 -16.783  0.00  0.00    +0.009 A 
ENDROOT
BRANCH   1  12
ATOM      7  H   UNL     1     -16.424   4.952 -17.317  0.00  0.00    +0.156 HD
ATOM      8  N   UNL     1     -15.671   4.393 -16.949  0.00  0.00    -0.270 N 
ATOM      9  C   UNL     1     -15.417   4.317 -15.614  0.00  0.00    +0.118 C 
ATOM     10  S   UNL     1     -14.019   3.303 -15.333  0.00  0.00    -0.061 S 
ATOM     11  C   UNL     1     -13.858   2.927 -17.011  0.00  0.00    +0.077 C 
ATOM     12  C   UNL     1     -13.008   2.073 -17.595  0.00  0.00    +0.029 C 
ATOM     13  S   UNL     1     -16.317   5.095 -14.463  0.00  0.00    -0.027 S 
ATOM     14  C   UNL     1     -14.863   3.690 -17.798  0.00  0.00    +0.256 C 
ATOM     15  O   UNL     1     -14.952   3.706 -19.014  0.00  0.00    -0.269 OA
ENDBRANCH   1  12
BRANCH   2  16
ATOM     16  C   UNL     1     -10.424   3.158 -16.446  0.00  0.00    +0.337 C 
ATOM     17  O   UNL     1     -10.153   3.815 -17.434  0.00  0.00    -0.245 OA
BRANCH  16  18
ATOM     18  O   UNL     1     -10.387   3.713 -15.219  0.00  0.00    -0.477 OA
ATOM     19  H   UNL     1     -11.172   3.340 -14.767  0.00  0.00    +0.295 HD
ENDBRANCH  16  18
ENDBRANCH   2  16
TORSDOF 3
ENDMDL
MODEL 3
REMARK VINA RESULT:      -6.0     11.438     12.068
REMARK  Name = min_compound974.pdb
REMARK  3 active torsions:
REMARK  status: ('A' for Active; 'I' for Inactive)
REMARK    1  A    between atoms: _10  and  _18
REMARK    2  A    between atoms: _12  and  _15
REMARK    3  A    between atoms: _15  and  _17
REMARK                            x       y       z     vdW  Elec       q    Type
REMARK                         _______ _______ _______ _____ _____    ______ ____
ROOT
ATOM      1  C   UNL     1     -15.793   1.137  -4.949  0.00  0.00    -0.010 A 
ATOM      2  C   UNL     1     -14.703   0.244  -4.894  0.00  0.00    +0.066 A 
ATOM      3  C   UNL     1     -13.535   0.614  -4.204  0.00  0.00    +0.015 A 
ATOM      4  C   UNL     1     -13.439   1.860  -3.584  0.00  0.00    +0.001 A 
ATOM      5  C   UNL     1     -14.507   2.748  -3.646  0.00  0.00    +0.001 A 
ATOM      6  C   UNL     1     -15.675   2.390  -4.323  0.00  0.00    +0.009 A 
ENDROOT
BRANCH   1  12
ATOM      7  H   UNL     1     -19.754   1.594  -9.145  0.00  0.00    +0.156 HD
ATOM      8  N   UNL     1     -18.894   1.672  -8.624  0.00  0.00    -0.270 N 
ATOM      9  C   UNL     1     -17.849   2.422  -9.067  0.00  0.00    +0.118 C 
ATOM     10  S   UNL     1     -16.512   2.298  -7.946  0.00  0.00    -0.061 S 
ATOM     11  C   UNL     1     -17.418   1.313  -6.855  0.00  0.00    +0.077 C 
ATOM     12  C   UNL     1     -17.062   0.869  -5.642  0.00  0.00    +0.029 C 
ATOM     13  S   UNL     1     -17.879   3.298 -10.472  0.00  0.00    -0.027 S 
ATOM     14  C   UNL     1     -18.751   1.008  -7.438  0.00  0.00    +0.256 C 
ATOM     15  O   UNL     1     -19.590   0.268  -6.950  0.00  0.00    -0.269 OA
ENDBRANCH   1  12
BRANCH   2  16
ATOM     16  C   UNL     1     -14.738  -1.071  -5.589  0.00  0.00    +0.337 C 
ATOM     17  O   UNL     1     -14.962  -1.278  -6.767  0.00  0.00    -0.245 OA
BRANCH  16  18
ATOM     18  O   UNL     1     -14.517  -2.094  -4.740  0.00  0.00    -0.477 OA
ATOM     19  H   UNL     1     -13.697  -1.838  -4.270  0.00  0.00    +0.295 HD
ENDBRANCH  16  18
ENDBRANCH   2  16
TORSDOF 3
ENDMDL
MODEL 4
REMARK VINA RESULT:      -5.9     11.695     12.271
REMARK  Name = min_compound974.pdb
REMARK  3 active torsions:
REMARK  status: ('A' for Active; 'I' for Inactive)
REMARK    1  A    between atoms: _10  and  _18
REMARK    2  A    between atoms: _12  and  _15
REMARK    3  A    between atoms: _15  and  _17
REMARK                            x       y       z     vdW  Elec       q    Type
REMARK                         _______ _______ _______ _____ _____    ______ ____
ROOT
ATOM      1  C   UNL     1     -14.784   0.442  -5.306  0.00  0.00    -0.010 A 
ATOM      2  C   UNL     1     -14.440   1.029  -4.071  0.00  0.00    +0.066 A 
ATOM      3  C   UNL     1     -14.174   0.207  -2.961  0.00  0.00    +0.015 A 
ATOM      4  C   UNL     1     -14.259  -1.182  -3.068  0.00  0.00    +0.001 A 
ATOM      5  C   UNL     1     -14.609  -1.763  -4.281  0.00  0.00    +0.001 A 
ATOM      6  C   UNL     1     -14.870  -0.958  -5.392  0.00  0.00    +0.009 A 
ENDROOT
BRANCH   1  12
ATOM      7  H   UNL     1     -18.136   2.876  -9.349  0.00  0.00    +0.156 HD
ATOM      8  N   UNL     1     -17.828   2.423  -8.502  0.00  0.00    -0.270 N 
ATOM      9  C   UNL     1     -18.708   1.946  -7.581  0.00  0.00    +0.118 C 
ATOM     10  S   UNL     1     -17.837   1.267  -6.224  0.00  0.00    -0.061 S 
ATOM     11  C   UNL     1     -16.304   1.555  -6.965  0.00  0.00    +0.077 C 
ATOM     12  C   UNL     1     -15.090   1.193  -6.534  0.00  0.00    +0.029 C 
ATOM     13  S   UNL     1     -20.353   2.028  -7.754  0.00  0.00    -0.027 S 
ATOM     14  C   UNL     1     -16.493   2.280  -8.250  0.00  0.00    +0.256 C 
ATOM     15  O   UNL     1     -15.601   2.700  -8.968  0.00  0.00    -0.269 OA
ENDBRANCH   1  12
BRANCH   2  16
ATOM     16  C   UNL     1     -14.394   2.505  -3.895  0.00  0.00    +0.337 C 
ATOM     17  O   UNL     1     -15.332   3.279  -3.902  0.00  0.00    -0.245 OA
BRANCH  16  18
ATOM     18  O   UNL     1     -13.132   2.955  -3.750  0.00  0.00    -0.477 OA
ATOM     19  H   UNL     1     -12.993   3.524  -4.535  0.00  0.00    +0.295 HD
ENDBRANCH  16  18
ENDBRANCH   2  16
TORSDOF 3
ENDMDL
MODEL 5
REMARK VINA RESULT:      -5.9     14.383     15.333
REMARK  Name = min_compound974.pdb
REMARK  3 active torsions:
REMARK  status: ('A' for Active; 'I' for Inactive)
REMARK    1  A    between atoms: _10  and  _18
REMARK    2  A    between atoms: _12  and  _15
REMARK    3  A    between atoms: _15  and  _17
REMARK                            x       y       z     vdW  Elec       q    Type
REMARK                         _______ _______ _______ _____ _____    ______ ____
ROOT
ATOM      1  C   UNL     1     -14.439  -0.589  -3.817  0.00  0.00    -0.010 A 
ATOM      2  C   UNL     1     -14.794  -0.120  -5.099  0.00  0.00    +0.066 A 
ATOM      3  C   UNL     1     -14.455   1.192  -5.477  0.00  0.00    +0.015 A 
ATOM      4  C   UNL     1     -13.782   2.037  -4.593  0.00  0.00    +0.001 A 
ATOM      5  C   UNL     1     -13.441   1.581  -3.325  0.00  0.00    +0.001 A 
ATOM      6  C   UNL     1     -13.767   0.279  -2.940  0.00  0.00    +0.009 A 
ENDROOT
BRANCH   1  12
ATOM      7  H   UNL     1     -17.511  -4.668  -1.093  0.00  0.00    +0.156 HD
ATOM      8  N   UNL     1     -17.242  -3.799  -1.527  0.00  0.00    -0.270 N 
ATOM      9  C   UNL     1     -18.038  -2.697  -1.485  0.00  0.00    +0.118 C 
ATOM     10  S   UNL     1     -17.287  -1.389  -2.372  0.00  0.00    -0.061 S 
ATOM     11  C   UNL     1     -15.874  -2.322  -2.705  0.00  0.00    +0.077 C 
ATOM     12  C   UNL     1     -14.742  -1.934  -3.305  0.00  0.00    +0.029 C 
ATOM     13  S   UNL     1     -19.499  -2.649  -0.707  0.00  0.00    -0.027 S 
ATOM     14  C   UNL     1     -16.049  -3.706  -2.189  0.00  0.00    +0.256 C 
ATOM     15  O   UNL     1     -15.265  -4.627  -2.340  0.00  0.00    -0.269 OA
ENDBRANCH   1  12
BRANCH   2  16
ATOM     16  C   UNL     1     -15.561  -0.964  -6.053  0.00  0.00    +0.337 C 
ATOM     17  O   UNL     1     -16.730  -0.843  -6.371  0.00  0.00    -0.245 OA
BRANCH  16  18
ATOM     18  O   UNL     1     -14.814  -1.969  -6.550  0.00  0.00    -0.477 OA
ATOM     19  H   UNL     1     -13.906  -1.599  -6.571  0.00  0.00    +0.295 HD
ENDBRANCH  16  18
ENDBRANCH   2  16
TORSDOF 3
ENDMDL
MODEL 6
REMARK VINA RESULT:      -5.9      3.128      3.937
REMARK  Name = min_compound974.pdb
REMARK  3 active torsions:
REMARK  status: ('A' for Active; 'I' for Inactive)
REMARK    1  A    between atoms: _10  and  _18
REMARK    2  A    between atoms: _12  and  _15
REMARK    3  A    between atoms: _15  and  _17
REMARK                            x       y       z     vdW  Elec       q    Type
REMARK                         _______ _______ _______ _____ _____    ______ ____
ROOT
ATOM      1  C   UNL     1     -11.659   3.104 -17.270  0.00  0.00    -0.010 A 
ATOM      2  C   UNL     1     -12.339   2.022 -17.867  0.00  0.00    +0.066 A 
ATOM      3  C   UNL     1     -12.126   0.717 -17.388  0.00  0.00    +0.015 A 
ATOM      4  C   UNL     1     -11.241   0.481 -16.335  0.00  0.00    +0.001 A 
ATOM      5  C   UNL     1     -10.561   1.544 -15.751  0.00  0.00    +0.001 A 
ATOM      6  C   UNL     1     -10.768   2.845 -16.215  0.00  0.00    +0.009 A 
ENDROOT
BRANCH   1  12
ATOM      7  H   UNL     1     -14.160   8.307 -17.678  0.00  0.00    +0.156 HD
ATOM      8  N   UNL     1     -13.954   7.361 -17.399  0.00  0.00    -0.270 N 
ATOM      9  C   UNL     1     -14.781   6.655 -16.581  0.00  0.00    +0.118 C 
ATOM     10  S   UNL     1     -14.100   5.075 -16.268  0.00  0.00    -0.061 S 
ATOM     11  C   UNL     1     -12.760   5.359 -17.319  0.00  0.00    +0.077 C 
ATOM     12  C   UNL     1     -11.793   4.508 -17.685  0.00  0.00    +0.029 C 
ATOM     13  S   UNL     1     -16.206   7.249 -15.983  0.00  0.00    -0.027 S 
ATOM     14  C   UNL     1     -12.812   6.752 -17.839  0.00  0.00    +0.256 C 
ATOM     15  O   UNL     1     -11.966   7.283 -18.537  0.00  0.00    -0.269 OA
ENDBRANCH   1  12
BRANCH   2  16
ATOM     16  C   UNL     1     -13.247   2.218 -19.029  0.00  0.00    +0.337 C 
ATOM     17  O   UNL     1     -14.290   2.844 -19.054  0.00  0.00    -0.245 OA
BRANCH  16  18
ATOM     18  O   UNL     1     -12.807   1.570 -20.126  0.00  0.00    -0.477 OA
ATOM     19  H   UNL     1     -12.217   2.219 -20.563  0.00  0.00    +0.295 HD
ENDBRANCH  16  18
ENDBRANCH   2  16
TORSDOF 3
ENDMDL
MODEL 7
REMARK VINA RESULT:      -5.8     14.308     15.123
REMARK  Name = min_compound974.pdb
REMARK  3 active torsions:
REMARK  status: ('A' for Active; 'I' for Inactive)
REMARK    1  A    between atoms: _10  and  _18
REMARK    2  A    between atoms: _12  and  _15
REMARK    3  A    between atoms: _15  and  _17
REMARK                            x       y       z     vdW  Elec       q    Type
REMARK                         _______ _______ _______ _____ _____    ______ ____
ROOT
ATOM      1  C   UNL     1     -15.973   0.521  -4.260  0.00  0.00    -0.010 A 
ATOM      2  C   UNL     1     -14.733  -0.109  -4.026  0.00  0.00    +0.066 A 
ATOM      3  C   UNL     1     -13.612   0.668  -3.681  0.00  0.00    +0.015 A 
ATOM      4  C   UNL     1     -13.713   2.056  -3.579  0.00  0.00    +0.001 A 
ATOM      5  C   UNL     1     -14.930   2.682  -3.820  0.00  0.00    +0.001 A 
ATOM      6  C   UNL     1     -16.052   1.921  -4.158  0.00  0.00    +0.009 A 
ENDROOT
BRANCH   1  12
ATOM      7  H   UNL     1     -20.636  -2.812  -3.463  0.00  0.00    +0.156 HD
ATOM      8  N   UNL     1     -19.813  -2.256  -3.291  0.00  0.00    -0.270 N 
ATOM      9  C   UNL     1     -19.252  -2.166  -2.055  0.00  0.00    +0.118 C 
ATOM     10  S   UNL     1     -17.873  -1.089  -2.107  0.00  0.00    -0.061 S 
ATOM     11  C   UNL     1     -18.024  -0.854  -3.811  0.00  0.00    +0.077 C 
ATOM     12  C   UNL     1     -17.211  -0.179  -4.633  0.00  0.00    +0.029 C 
ATOM     13  S   UNL     1     -19.828  -2.964  -0.724  0.00  0.00    -0.027 S 
ATOM     14  C   UNL     1     -19.233  -1.560  -4.313  0.00  0.00    +0.256 C 
ATOM     15  O   UNL     1     -19.659  -1.517  -5.455  0.00  0.00    -0.269 OA
ENDBRANCH   1  12
BRANCH   2  16
ATOM     16  C   UNL     1     -14.565  -1.579  -4.180  0.00  0.00    +0.337 C 
ATOM     17  O   UNL     1     -14.565  -2.418  -3.299  0.00  0.00    -0.245 OA
BRANCH  16  18
ATOM     18  O   UNL     1     -14.363  -1.930  -5.465  0.00  0.00    -0.477 OA
ATOM     19  H   UNL     1     -14.472  -2.904  -5.463  0.00  0.00    +0.295 HD
ENDBRANCH  16  18
ENDBRANCH   2  16
TORSDOF 3
ENDMDL
MODEL 8
REMARK VINA RESULT:      -5.7     12.417     13.096
REMARK  Name = min_compound974.pdb
REMARK  3 active torsions:
REMARK  status: ('A' for Active; 'I' for Inactive)
REMARK    1  A    between atoms: _10  and  _18
REMARK    2  A    between atoms: _12  and  _15
REMARK    3  A    between atoms: _15  and  _17
REMARK                            x       y       z     vdW  Elec       q    Type
REMARK                         _______ _______ _______ _____ _____    ______ ____
ROOT
ATOM      1  C   UNL     1     -15.778   1.771  -4.009  0.00  0.00    -0.010 A 
ATOM      2  C   UNL     1     -15.451   0.417  -3.789  0.00  0.00    +0.066 A 
ATOM      3  C   UNL     1     -14.144   0.073  -3.399  0.00  0.00    +0.015 A 
ATOM      4  C   UNL     1     -13.166   1.055  -3.239  0.00  0.00    +0.001 A 
ATOM      5  C   UNL     1     -13.483   2.390  -3.466  0.00  0.00    +0.001 A 
ATOM      6  C   UNL     1     -14.778   2.745  -3.848  0.00  0.00    +0.009 A 
ENDROOT
BRANCH   1  12
ATOM      7  H   UNL     1     -19.869   3.542  -7.700  0.00  0.00    +0.156 HD
ATOM      8  N   UNL     1     -19.015   3.161  -7.326  0.00  0.00    -0.270 N 
ATOM      9  C   UNL     1     -17.970   2.814  -8.125  0.00  0.00    +0.118 C 
ATOM     10  S   UNL     1     -16.675   2.148  -7.155  0.00  0.00    -0.061 S 
ATOM     11  C   UNL     1     -17.528   2.435  -5.681  0.00  0.00    +0.077 C 
ATOM     12  C   UNL     1     -17.103   2.255  -4.424  0.00  0.00    +0.029 C 
ATOM     13  S   UNL     1     -17.972   3.001  -9.770  0.00  0.00    -0.027 S 
ATOM     14  C   UNL     1     -18.883   2.972  -5.978  0.00  0.00    +0.256 C 
ATOM     15  O   UNL     1     -19.756   3.198  -5.156  0.00  0.00    -0.269 OA
ENDBRANCH   1  12
BRANCH   2  16
ATOM     16  C   UNL     1     -16.443  -0.670  -4.004  0.00  0.00    +0.337 C 
ATOM     17  O   UNL     1     -17.274  -1.078  -3.214  0.00  0.00    -0.245 OA
BRANCH  16  18
ATOM     18  O   UNL     1     -16.318  -1.232  -5.222  0.00  0.00    -0.477 OA
ATOM     19  H   UNL     1     -16.254  -0.466  -5.830  0.00  0.00    +0.295 HD
ENDBRANCH  16  18
ENDBRANCH   2  16
TORSDOF 3
ENDMDL
MODEL 9
REMARK VINA RESULT:      -5.6     13.627     14.320
REMARK  Name = min_compound974.pdb
REMARK  3 active torsions:
REMARK  status: ('A' for Active; 'I' for Inactive)
REMARK    1  A    between atoms: _10  and  _18
REMARK    2  A    between atoms: _12  and  _15
REMARK    3  A    between atoms: _15  and  _17
REMARK                            x       y       z     vdW  Elec       q    Type
REMARK                         _______ _______ _______ _____ _____    ______ ____
ROOT
ATOM      1  C   UNL     1     -15.888   0.610  -3.435  0.00  0.00    -0.010 A 
ATOM      2  C   UNL     1     -14.624   0.005  -3.271  0.00  0.00    +0.066 A 
ATOM      3  C   UNL     1     -13.460   0.788  -3.374  0.00  0.00    +0.015 A 
ATOM      4  C   UNL     1     -13.543   2.154  -3.649  0.00  0.00    +0.001 A 
ATOM      5  C   UNL     1     -14.786   2.751  -3.822  0.00  0.00    +0.001 A 
ATOM      6  C   UNL     1     -15.949   1.985  -3.717  0.00  0.00    +0.009 A 
ENDROOT
BRANCH   1  12
ATOM      7  H   UNL     1     -20.996  -1.353  -5.321  0.00  0.00    +0.156 HD
ATOM      8  N   UNL     1     -20.076  -0.940  -5.295  0.00  0.00    -0.270 N 
ATOM      9  C   UNL     1     -19.530  -0.331  -6.382  0.00  0.00    +0.118 C 
ATOM     10  S   UNL     1     -17.917   0.229  -6.001  0.00  0.00    -0.061 S 
ATOM     11  C   UNL     1     -18.043  -0.287  -4.358  0.00  0.00    +0.077 C 
ATOM     12  C   UNL     1     -17.173  -0.101  -3.357  0.00  0.00    +0.029 C 
ATOM     13  S   UNL     1     -20.309  -0.175  -7.835  0.00  0.00    -0.027 S 
ATOM     14  C   UNL     1     -19.337  -0.990  -4.147  0.00  0.00    +0.256 C 
ATOM     15  O   UNL     1     -19.687  -1.544  -3.118  0.00  0.00    -0.269 OA
ENDBRANCH   1  12
BRANCH   2  16
ATOM     16  C   UNL     1     -14.484  -1.457  -3.035  0.00  0.00    +0.337 C 
ATOM     17  O   UNL     1     -14.241  -2.015  -1.981  0.00  0.00    -0.245 OA
BRANCH  16  18
ATOM     18  O   UNL     1     -14.627  -2.166  -4.172  0.00  0.00    -0.477 OA
ATOM     19  H   UNL     1     -15.350  -1.706  -4.647  0.00  0.00    +0.295 HD
ENDBRANCH  16  18
ENDBRANCH   2  16
TORSDOF 3
ENDMDL
