MODEL 1
REMARK VINA RESULT:      -6.8      0.000      0.000
REMARK  Name = min_compound919.pdb
REMARK  3 active torsions:
REMARK  status: ('A' for Active; 'I' for Inactive)
REMARK    1  A    between atoms: _1  and  _15
REMARK    2  A    between atoms: _2  and  _16
REMARK    3  A    between atoms: _6  and  _19
REMARK                            x       y       z     vdW  Elec       q    Type
REMARK                         _______ _______ _______ _____ _____    ______ ____
ROOT
ATOM      1  C   UNL     1     -15.022   7.675 -16.332  0.00  0.00    +0.027 A 
ATOM      2  C   UNL     1     -15.621   9.051 -16.315  0.00  0.00    +0.051 C 
ATOM      3  C   UNL     1     -15.295   6.587 -15.477  0.00  0.00    +0.278 A 
ATOM      4  C   UNL     1     -14.680   5.259 -15.618  0.00  0.00    +0.107 A 
ATOM      5  C   UNL     1     -13.747   4.938 -16.629  0.00  0.00    +0.041 A 
ATOM      6  C   UNL     1     -13.465   6.010 -17.480  0.00  0.00    +0.024 A 
ATOM      7  C   UNL     1     -14.077   7.316 -17.337  0.00  0.00    +0.012 A 
ENDROOT
BRANCH   5   8
ATOM      8  N   UNL     1     -13.159   3.584 -16.723  0.00  0.00    -0.269 N 
ATOM      9  H   UNL     1     -13.763   2.823 -16.454  0.00  0.00    +0.156 HD
ATOM     10  C   UNL     1     -11.863   3.239 -17.150  0.00  0.00    +0.306 C 
ATOM     11  N   UNL     1     -11.462   1.843 -17.115  0.00  0.00    -0.285 N 
ATOM     12  C   UNL     1     -12.266   0.705 -16.534  0.00  0.00    +0.109 C 
ATOM     13  C   UNL     1     -11.706  -0.686 -16.563  0.00  0.00    +0.019 C 
ATOM     14  C   UNL     1     -10.238  -0.278 -16.041  0.00  0.00    +0.003 C 
ATOM     15  C   UNL     1      -9.402   0.256 -17.309  0.00  0.00    +0.019 C 
ATOM     16  C   UNL     1      -9.962   1.647 -17.280  0.00  0.00    +0.109 C 
ATOM     17  O   UNL     1     -11.053   4.090 -17.527  0.00  0.00    -0.252 OA
ENDBRANCH   5   8
BRANCH   3  18
ATOM     18  N   UNL     1     -16.245   6.757 -14.372  0.00  0.00    +0.080 N 
ATOM     19  O   UNL     1     -15.825   7.300 -13.340  0.00  0.00    +0.041 OA
ATOM     20  O   UNL     1     -17.408   6.365 -14.540  0.00  0.00    -0.576 OA
ENDBRANCH   3  18
TORSDOF 2
ENDMDL
MODEL 2
REMARK VINA RESULT:      -6.5     12.901     13.912
REMARK  Name = min_compound919.pdb
REMARK  3 active torsions:
REMARK  status: ('A' for Active; 'I' for Inactive)
REMARK    1  A    between atoms: _1  and  _15
REMARK    2  A    between atoms: _2  and  _16
REMARK    3  A    between atoms: _6  and  _19
REMARK                            x       y       z     vdW  Elec       q    Type
REMARK                         _______ _______ _______ _____ _____    ______ ____
ROOT
ATOM      1  C   UNL     1     -15.475   1.116  -7.309  0.00  0.00    +0.027 A 
ATOM      2  C   UNL     1     -15.672   2.166  -8.364  0.00  0.00    +0.051 C 
ATOM      3  C   UNL     1     -16.447   0.322  -6.667  0.00  0.00    +0.278 A 
ATOM      4  C   UNL     1     -16.133  -0.719  -5.676  0.00  0.00    +0.107 A 
ATOM      5  C   UNL     1     -14.818  -1.027  -5.265  0.00  0.00    +0.041 A 
ATOM      6  C   UNL     1     -13.845  -0.242  -5.891  0.00  0.00    +0.024 A 
ATOM      7  C   UNL     1     -14.162   0.779  -6.869  0.00  0.00    +0.012 A 
ENDROOT
BRANCH   5   8
ATOM      8  N   UNL     1     -14.559  -2.084  -4.263  0.00  0.00    -0.269 N 
ATOM      9  H   UNL     1     -14.116  -2.920  -4.611  0.00  0.00    +0.156 HD
ATOM     10  C   UNL     1     -14.851  -2.052  -2.887  0.00  0.00    +0.306 C 
ATOM     11  N   UNL     1     -14.563  -3.226  -2.081  0.00  0.00    -0.285 N 
ATOM     12  C   UNL     1     -14.088  -4.561  -2.601  0.00  0.00    +0.109 C 
ATOM     13  C   UNL     1     -13.845  -5.686  -1.638  0.00  0.00    +0.019 C 
ATOM     14  C   UNL     1     -15.216  -5.490  -0.817  0.00  0.00    +0.003 C 
ATOM     15  C   UNL     1     -14.977  -4.311   0.254  0.00  0.00    +0.019 C 
ATOM     16  C   UNL     1     -15.219  -3.186  -0.709  0.00  0.00    +0.109 C 
ATOM     17  O   UNL     1     -15.367  -1.066  -2.353  0.00  0.00    -0.252 OA
ENDBRANCH   5   8
BRANCH   3  18
ATOM     18  N   UNL     1     -17.866   0.519  -6.984  0.00  0.00    +0.080 N 
ATOM     19  O   UNL     1     -18.350  -0.184  -7.883  0.00  0.00    +0.041 OA
ATOM     20  O   UNL     1     -18.498   1.358  -6.327  0.00  0.00    -0.576 OA
ENDBRANCH   3  18
TORSDOF 2
ENDMDL
MODEL 3
REMARK VINA RESULT:      -6.4      7.108      8.328
REMARK  Name = min_compound919.pdb
REMARK  3 active torsions:
REMARK  status: ('A' for Active; 'I' for Inactive)
REMARK    1  A    between atoms: _1  and  _15
REMARK    2  A    between atoms: _2  and  _16
REMARK    3  A    between atoms: _6  and  _19
REMARK                            x       y       z     vdW  Elec       q    Type
REMARK                         _______ _______ _______ _____ _____    ______ ____
ROOT
ATOM      1  C   UNL     1     -16.653   6.252 -12.289  0.00  0.00    +0.027 A 
ATOM      2  C   UNL     1     -16.968   7.187 -13.420  0.00  0.00    +0.051 C 
ATOM      3  C   UNL     1     -17.255   6.179 -11.015  0.00  0.00    +0.278 A 
ATOM      4  C   UNL     1     -16.897   5.182  -9.995  0.00  0.00    +0.107 A 
ATOM      5  C   UNL     1     -15.907   4.194 -10.188  0.00  0.00    +0.041 A 
ATOM      6  C   UNL     1     -15.299   4.259 -11.446  0.00  0.00    +0.024 A 
ATOM      7  C   UNL     1     -15.660   5.242 -12.448  0.00  0.00    +0.012 A 
ENDROOT
BRANCH   5   8
ATOM      8  N   UNL     1     -15.587   3.216  -9.125  0.00  0.00    -0.269 N 
ATOM      9  H   UNL     1     -14.621   3.181  -8.839  0.00  0.00    +0.156 HD
ATOM     10  C   UNL     1     -16.471   2.343  -8.467  0.00  0.00    +0.306 C 
ATOM     11  N   UNL     1     -15.940   1.416  -7.482  0.00  0.00    -0.285 N 
ATOM     12  C   UNL     1     -14.479   1.196  -7.173  0.00  0.00    +0.109 C 
ATOM     13  C   UNL     1     -14.087   0.189  -6.133  0.00  0.00    +0.019 C 
ATOM     14  C   UNL     1     -15.068  -0.974  -6.660  0.00  0.00    +0.003 C 
ATOM     15  C   UNL     1     -16.533  -0.685  -6.056  0.00  0.00    +0.019 C 
ATOM     16  C   UNL     1     -16.925   0.322  -7.096  0.00  0.00    +0.109 C 
ATOM     17  O   UNL     1     -17.679   2.325  -8.721  0.00  0.00    -0.252 OA
ENDBRANCH   5   8
BRANCH   3  18
ATOM     18  N   UNL     1     -18.305   7.139 -10.655  0.00  0.00    +0.080 N 
ATOM     19  O   UNL     1     -18.001   8.043  -9.864  0.00  0.00    +0.041 OA
ATOM     20  O   UNL     1     -19.421   7.000 -11.173  0.00  0.00    -0.576 OA
ENDBRANCH   3  18
TORSDOF 2
ENDMDL
MODEL 4
REMARK VINA RESULT:      -6.3      1.851      2.641
REMARK  Name = min_compound919.pdb
REMARK  3 active torsions:
REMARK  status: ('A' for Active; 'I' for Inactive)
REMARK    1  A    between atoms: _1  and  _15
REMARK    2  A    between atoms: _2  and  _16
REMARK    3  A    between atoms: _6  and  _19
REMARK                            x       y       z     vdW  Elec       q    Type
REMARK                         _______ _______ _______ _____ _____    ______ ____
ROOT
ATOM      1  C   UNL     1     -16.427   9.639 -17.076  0.00  0.00    +0.027 A 
ATOM      2  C   UNL     1     -17.187  10.927 -17.206  0.00  0.00    +0.051 C 
ATOM      3  C   UNL     1     -16.097   8.928 -15.904  0.00  0.00    +0.278 A 
ATOM      4  C   UNL     1     -15.386   7.640 -15.899  0.00  0.00    +0.107 A 
ATOM      5  C   UNL     1     -14.958   6.984 -17.073  0.00  0.00    +0.041 A 
ATOM      6  C   UNL     1     -15.274   7.683 -18.243  0.00  0.00    +0.024 A 
ATOM      7  C   UNL     1     -15.978   8.950 -18.241  0.00  0.00    +0.012 A 
ENDROOT
BRANCH   5   8
ATOM      8  N   UNL     1     -14.245   5.690 -17.009  0.00  0.00    -0.269 N 
ATOM      9  H   UNL     1     -14.809   4.890 -16.768  0.00  0.00    +0.156 HD
ATOM     10  C   UNL     1     -12.880   5.448 -17.253  0.00  0.00    +0.306 C 
ATOM     11  N   UNL     1     -12.364   4.101 -17.081  0.00  0.00    -0.285 N 
ATOM     12  C   UNL     1     -13.131   2.924 -16.531  0.00  0.00    +0.109 C 
ATOM     13  C   UNL     1     -12.452   1.593 -16.403  0.00  0.00    +0.019 C 
ATOM     14  C   UNL     1     -11.104   2.166 -15.734  0.00  0.00    +0.003 C 
ATOM     15  C   UNL     1     -10.165   2.710 -16.924  0.00  0.00    +0.019 C 
ATOM     16  C   UNL     1     -10.845   4.041 -17.051  0.00  0.00    +0.109 C 
ATOM     17  O   UNL     1     -12.107   6.352 -17.583  0.00  0.00    -0.252 OA
ENDBRANCH   5   8
BRANCH   3  18
ATOM     18  N   UNL     1     -16.472   9.476 -14.596  0.00  0.00    +0.080 N 
ATOM     19  O   UNL     1     -17.247   8.804 -13.900  0.00  0.00    +0.041 OA
ATOM     20  O   UNL     1     -15.981  10.562 -14.259  0.00  0.00    -0.576 OA
ENDBRANCH   3  18
TORSDOF 2
ENDMDL
MODEL 5
REMARK VINA RESULT:      -6.3      3.565      4.983
REMARK  Name = min_compound919.pdb
REMARK  3 active torsions:
REMARK  status: ('A' for Active; 'I' for Inactive)
REMARK    1  A    between atoms: _1  and  _15
REMARK    2  A    between atoms: _2  and  _16
REMARK    3  A    between atoms: _6  and  _19
REMARK                            x       y       z     vdW  Elec       q    Type
REMARK                         _______ _______ _______ _____ _____    ______ ____
ROOT
ATOM      1  C   UNL     1     -18.279   4.366 -11.372  0.00  0.00    +0.027 A 
ATOM      2  C   UNL     1     -19.470   4.465 -10.464  0.00  0.00    +0.051 C 
ATOM      3  C   UNL     1     -17.068   5.085 -11.315  0.00  0.00    +0.278 A 
ATOM      4  C   UNL     1     -15.941   4.869 -12.234  0.00  0.00    +0.107 A 
ATOM      5  C   UNL     1     -15.959   3.914 -13.275  0.00  0.00    +0.041 A 
ATOM      6  C   UNL     1     -17.158   3.198 -13.345  0.00  0.00    +0.024 A 
ATOM      7  C   UNL     1     -18.263   3.414 -12.433  0.00  0.00    +0.012 A 
ENDROOT
BRANCH   5   8
ATOM      8  N   UNL     1     -14.797   3.740 -14.172  0.00  0.00    -0.269 N 
ATOM      9  H   UNL     1     -14.125   3.043 -13.889  0.00  0.00    +0.156 HD
ATOM     10  C   UNL     1     -14.528   4.424 -15.372  0.00  0.00    +0.306 C 
ATOM     11  N   UNL     1     -13.292   4.138 -16.081  0.00  0.00    -0.285 N 
ATOM     12  C   UNL     1     -12.174   3.253 -15.587  0.00  0.00    +0.109 C 
ATOM     13  C   UNL     1     -10.949   3.067 -16.434  0.00  0.00    +0.019 C 
ATOM     14  C   UNL     1     -10.759   4.627 -16.783  0.00  0.00    +0.003 C 
ATOM     15  C   UNL     1     -11.747   4.976 -18.006  0.00  0.00    +0.019 C 
ATOM     16  C   UNL     1     -12.971   5.162 -17.160  0.00  0.00    +0.109 C 
ATOM     17  O   UNL     1     -15.299   5.275 -15.823  0.00  0.00    -0.252 OA
ENDBRANCH   5   8
BRANCH   3  18
ATOM     18  N   UNL     1     -16.887   6.118 -10.288  0.00  0.00    +0.080 N 
ATOM     19  O   UNL     1     -17.395   7.228 -10.503  0.00  0.00    +0.041 OA
ATOM     20  O   UNL     1     -16.258   5.816  -9.264  0.00  0.00    -0.576 OA
ENDBRANCH   3  18
TORSDOF 2
ENDMDL
MODEL 6
REMARK VINA RESULT:      -6.3      3.520      4.174
REMARK  Name = min_compound919.pdb
REMARK  3 active torsions:
REMARK  status: ('A' for Active; 'I' for Inactive)
REMARK    1  A    between atoms: _1  and  _15
REMARK    2  A    between atoms: _2  and  _16
REMARK    3  A    between atoms: _6  and  _19
REMARK                            x       y       z     vdW  Elec       q    Type
REMARK                         _______ _______ _______ _____ _____    ______ ____
ROOT
ATOM      1  C   UNL     1     -18.860   3.592 -13.403  0.00  0.00    +0.027 A 
ATOM      2  C   UNL     1     -20.153   4.041 -12.787  0.00  0.00    +0.051 C 
ATOM      3  C   UNL     1     -17.608   3.406 -12.780  0.00  0.00    +0.278 A 
ATOM      4  C   UNL     1     -16.411   2.911 -13.476  0.00  0.00    +0.107 A 
ATOM      5  C   UNL     1     -16.394   2.572 -14.846  0.00  0.00    +0.041 A 
ATOM      6  C   UNL     1     -17.628   2.757 -15.476  0.00  0.00    +0.024 A 
ATOM      7  C   UNL     1     -18.805   3.242 -14.783  0.00  0.00    +0.012 A 
ENDROOT
BRANCH   5   8
ATOM      8  N   UNL     1     -15.159   2.079 -15.496  0.00  0.00    -0.269 N 
ATOM      9  H   UNL     1     -15.133   1.091 -15.695  0.00  0.00    +0.156 HD
ATOM     10  C   UNL     1     -14.030   2.829 -15.874  0.00  0.00    +0.306 C 
ATOM     11  N   UNL     1     -12.891   2.138 -16.454  0.00  0.00    -0.285 N 
ATOM     12  C   UNL     1     -12.735   0.643 -16.583  0.00  0.00    +0.109 C 
ATOM     13  C   UNL     1     -11.488   0.079 -17.197  0.00  0.00    +0.019 C 
ATOM     14  C   UNL     1     -10.469   1.011 -16.369  0.00  0.00    +0.003 C 
ATOM     15  C   UNL     1     -10.388   2.432 -17.122  0.00  0.00    +0.019 C 
ATOM     16  C   UNL     1     -11.636   2.995 -16.508  0.00  0.00    +0.109 C 
ATOM     17  O   UNL     1     -13.971   4.050 -15.702  0.00  0.00    -0.252 OA
ENDBRANCH   5   8
BRANCH   3  18
ATOM     18  N   UNL     1     -17.457   3.714 -11.353  0.00  0.00    +0.080 N 
ATOM     19  O   UNL     1     -17.069   4.853 -11.055  0.00  0.00    +0.041 OA
ATOM     20  O   UNL     1     -17.741   2.828 -10.534  0.00  0.00    -0.576 OA
ENDBRANCH   3  18
TORSDOF 2
ENDMDL
MODEL 7
REMARK VINA RESULT:      -6.2      7.942      9.781
REMARK  Name = min_compound919.pdb
REMARK  3 active torsions:
REMARK  status: ('A' for Active; 'I' for Inactive)
REMARK    1  A    between atoms: _1  and  _15
REMARK    2  A    between atoms: _2  and  _16
REMARK    3  A    between atoms: _6  and  _19
REMARK                            x       y       z     vdW  Elec       q    Type
REMARK                         _______ _______ _______ _____ _____    ______ ____
ROOT
ATOM      1  C   UNL     1     -16.263   1.891  -5.375  0.00  0.00    +0.027 A 
ATOM      2  C   UNL     1     -16.211   1.642  -3.896  0.00  0.00    +0.051 C 
ATOM      3  C   UNL     1     -15.598   1.197  -6.407  0.00  0.00    +0.278 A 
ATOM      4  C   UNL     1     -15.763   1.498  -7.837  0.00  0.00    +0.107 A 
ATOM      5  C   UNL     1     -16.607   2.520  -8.323  0.00  0.00    +0.041 A 
ATOM      6  C   UNL     1     -17.268   3.219  -7.309  0.00  0.00    +0.024 A 
ATOM      7  C   UNL     1     -17.104   2.914  -5.902  0.00  0.00    +0.012 A 
ENDROOT
BRANCH   5   8
ATOM      8  N   UNL     1     -16.734   2.780  -9.774  0.00  0.00    -0.269 N 
ATOM      9  H   UNL     1     -17.257   2.096 -10.298  0.00  0.00    +0.156 HD
ATOM     10  C   UNL     1     -16.220   3.871 -10.499  0.00  0.00    +0.306 C 
ATOM     11  N   UNL     1     -16.412   3.910 -11.938  0.00  0.00    -0.285 N 
ATOM     12  C   UNL     1     -17.011   2.811 -12.781  0.00  0.00    +0.109 C 
ATOM     13  C   UNL     1     -17.131   2.998 -14.265  0.00  0.00    +0.019 C 
ATOM     14  C   UNL     1     -15.638   3.564 -14.474  0.00  0.00    +0.003 C 
ATOM     15  C   UNL     1     -15.658   5.133 -14.114  0.00  0.00    +0.019 C 
ATOM     16  C   UNL     1     -15.539   4.946 -12.630  0.00  0.00    +0.109 C 
ATOM     17  O   UNL     1     -15.590   4.779  -9.950  0.00  0.00    -0.252 OA
ENDBRANCH   5   8
BRANCH   3  18
ATOM     18  N   UNL     1     -14.681   0.102  -6.068  0.00  0.00    +0.080 N 
ATOM     19  O   UNL     1     -15.063  -1.053  -6.304  0.00  0.00    +0.041 OA
ATOM     20  O   UNL     1     -13.578   0.396  -5.586  0.00  0.00    -0.576 OA
ENDBRANCH   3  18
TORSDOF 2
ENDMDL
MODEL 8
REMARK VINA RESULT:      -6.1     14.021     15.029
REMARK  Name = min_compound919.pdb
REMARK  3 active torsions:
REMARK  status: ('A' for Active; 'I' for Inactive)
REMARK    1  A    between atoms: _1  and  _15
REMARK    2  A    between atoms: _2  and  _16
REMARK    3  A    between atoms: _6  and  _19
REMARK                            x       y       z     vdW  Elec       q    Type
REMARK                         _______ _______ _______ _____ _____    ______ ____
ROOT
ATOM      1  C   UNL     1     -15.920   0.943  -4.720  0.00  0.00    +0.027 A 
ATOM      2  C   UNL     1     -16.315   2.333  -5.127  0.00  0.00    +0.051 C 
ATOM      3  C   UNL     1     -15.285  -0.051  -5.492  0.00  0.00    +0.278 A 
ATOM      4  C   UNL     1     -14.897  -1.371  -4.972  0.00  0.00    +0.107 A 
ATOM      5  C   UNL     1     -15.126  -1.778  -3.639  0.00  0.00    +0.041 A 
ATOM      6  C   UNL     1     -15.760  -0.802  -2.865  0.00  0.00    +0.024 A 
ATOM      7  C   UNL     1     -16.136   0.498  -3.384  0.00  0.00    +0.012 A 
ENDROOT
BRANCH   5   8
ATOM      8  N   UNL     1     -14.716  -3.120  -3.170  0.00  0.00    -0.269 N 
ATOM      9  H   UNL     1     -14.993  -3.893  -3.755  0.00  0.00    +0.156 HD
ATOM     10  C   UNL     1     -13.981  -3.437  -2.012  0.00  0.00    +0.306 C 
ATOM     11  N   UNL     1     -13.729  -4.834  -1.702  0.00  0.00    -0.285 N 
ATOM     12  C   UNL     1     -14.295  -6.020  -2.443  0.00  0.00    +0.109 C 
ATOM     13  C   UNL     1     -13.949  -7.408  -1.990  0.00  0.00    +0.019 C 
ATOM     14  C   UNL     1     -14.205  -7.133  -0.425  0.00  0.00    +0.003 C 
ATOM     15  C   UNL     1     -12.880  -6.438   0.169  0.00  0.00    +0.019 C 
ATOM     16  C   UNL     1     -13.226  -5.050  -0.283  0.00  0.00    +0.109 C 
ATOM     17  O   UNL     1     -13.569  -2.565  -1.243  0.00  0.00    -0.252 OA
ENDBRANCH   5   8
BRANCH   3  18
ATOM     18  N   UNL     1     -14.976   0.214  -6.902  0.00  0.00    +0.080 N 
ATOM     19  O   UNL     1     -13.939   0.848  -7.147  0.00  0.00    +0.041 OA
ATOM     20  O   UNL     1     -15.757  -0.222  -7.760  0.00  0.00    -0.576 OA
ENDBRANCH   3  18
TORSDOF 2
ENDMDL
MODEL 9
REMARK VINA RESULT:      -6.1      2.216      2.656
REMARK  Name = min_compound919.pdb
REMARK  3 active torsions:
REMARK  status: ('A' for Active; 'I' for Inactive)
REMARK    1  A    between atoms: _1  and  _15
REMARK    2  A    between atoms: _2  and  _16
REMARK    3  A    between atoms: _6  and  _19
REMARK                            x       y       z     vdW  Elec       q    Type
REMARK                         _______ _______ _______ _____ _____    ______ ____
ROOT
ATOM      1  C   UNL     1     -16.776   6.507 -13.950  0.00  0.00    +0.027 A 
ATOM      2  C   UNL     1     -17.873   7.502 -13.705  0.00  0.00    +0.051 C 
ATOM      3  C   UNL     1     -16.331   5.464 -13.111  0.00  0.00    +0.278 A 
ATOM      4  C   UNL     1     -15.273   4.511 -13.478  0.00  0.00    +0.107 A 
ATOM      5  C   UNL     1     -14.591   4.545 -14.714  0.00  0.00    +0.041 A 
ATOM      6  C   UNL     1     -15.019   5.579 -15.553  0.00  0.00    +0.024 A 
ATOM      7  C   UNL     1     -16.065   6.513 -15.186  0.00  0.00    +0.012 A 
ENDROOT
BRANCH   5   8
ATOM      8  N   UNL     1     -13.532   3.561 -15.030  0.00  0.00    -0.269 N 
ATOM      9  H   UNL     1     -12.737   3.558 -14.410  0.00  0.00    +0.156 HD
ATOM     10  C   UNL     1     -13.513   2.629 -16.084  0.00  0.00    +0.306 C 
ATOM     11  N   UNL     1     -12.344   1.783 -16.251  0.00  0.00    -0.285 N 
ATOM     12  C   UNL     1     -11.058   1.887 -15.469  0.00  0.00    +0.109 C 
ATOM     13  C   UNL     1      -9.932   0.943 -15.770  0.00  0.00    +0.019 C 
ATOM     14  C   UNL     1     -10.014   1.102 -17.370  0.00  0.00    +0.003 C 
ATOM     15  C   UNL     1     -11.183   0.127 -17.895  0.00  0.00    +0.019 C 
ATOM     16  C   UNL     1     -12.309   1.071 -17.595  0.00  0.00    +0.109 C 
ATOM     17  O   UNL     1     -14.449   2.530 -16.882  0.00  0.00    -0.252 OA
ENDBRANCH   5   8
BRANCH   3  18
ATOM     18  N   UNL     1     -16.940   5.291 -11.788  0.00  0.00    +0.080 N 
ATOM     19  O   UNL     1     -16.341   5.779 -10.818  0.00  0.00    +0.041 OA
ATOM     20  O   UNL     1     -18.019   4.687 -11.719  0.00  0.00    -0.576 OA
ENDBRANCH   3  18
TORSDOF 2
ENDMDL
