MODEL 1
REMARK VINA RESULT:      -6.0      0.000      0.000
REMARK  Name = min_compound950.pdb
REMARK  4 active torsions:
REMARK  status: ('A' for Active; 'I' for Inactive)
REMARK    1  A    between atoms: _7  and  _14
REMARK    2  A    between atoms: _9  and  _17
REMARK    3  A    between atoms: _10  and  _12
REMARK    4  A    between atoms: _13  and  _14
REMARK                            x       y       z     vdW  Elec       q    Type
REMARK                         _______ _______ _______ _____ _____    ______ ____
ROOT
ATOM      1  S   UNL     1     -14.586   7.849 -17.537  0.00  0.00    -0.072 S 
ATOM      2  C   UNL     1     -15.949   7.017 -16.828  0.00  0.00    +0.076 A 
ATOM      3  C   UNL     1     -17.249   7.759 -16.729  0.00  0.00    +0.073 C 
ATOM      4  N   UNL     1     -15.606   5.770 -16.457  0.00  0.00    -0.244 NA
ATOM      5  C   UNL     1     -14.217   5.438 -16.737  0.00  0.00    +0.080 A 
ATOM      6  C   UNL     1     -13.435   4.211 -16.501  0.00  0.00    +0.057 A 
ATOM      7  C   UNL     1     -12.013   3.993 -16.830  0.00  0.00    +0.111 A 
ATOM      8  C   UNL     1     -11.440   5.125 -17.420  0.00  0.00    +0.030 A 
ATOM      9  C   UNL     1     -12.153   6.340 -17.673  0.00  0.00    +0.019 A 
ATOM     10  C   UNL     1     -13.524   6.484 -17.331  0.00  0.00    +0.039 A 
ENDROOT
BRANCH   7  11
ATOM     11  S   UNL     1     -11.204   2.753 -16.592  0.00  0.00    +0.074 S 
ATOM     12  O   UNL     1     -10.007   3.369 -17.182  0.00  0.00    -0.150 OA
ATOM     13  O   UNL     1     -11.421   2.839 -15.140  0.00  0.00    -0.150 OA
BRANCH  11  14
ATOM     14  N   UNL     1     -10.394   1.513 -16.354  0.00  0.00    -0.186 N 
ATOM     15  H   UNL     1      -9.438   1.687 -16.073  0.00  0.00    +0.177 HD
ATOM     16  C   UNL     1     -10.869   0.215 -16.512  0.00  0.00    +0.229 C 
ATOM     17  C   UNL     1      -9.860  -0.862 -16.241  0.00  0.00    +0.111 C 
ATOM     18  O   UNL     1     -12.018  -0.015 -16.866  0.00  0.00    -0.275 OA
ENDBRANCH  11  14
ENDBRANCH   7  11
TORSDOF 2
ENDMDL
MODEL 2
REMARK VINA RESULT:      -5.8      1.382      1.933
REMARK  Name = min_compound950.pdb
REMARK  4 active torsions:
REMARK  status: ('A' for Active; 'I' for Inactive)
REMARK    1  A    between atoms: _7  and  _14
REMARK    2  A    between atoms: _9  and  _17
REMARK    3  A    between atoms: _10  and  _12
REMARK    4  A    between atoms: _13  and  _14
REMARK                            x       y       z     vdW  Elec       q    Type
REMARK                         _______ _______ _______ _____ _____    ______ ____
ROOT
ATOM      1  S   UNL     1     -16.183   6.813 -15.981  0.00  0.00    -0.072 S 
ATOM      2  C   UNL     1     -15.219   7.751 -17.095  0.00  0.00    +0.076 A 
ATOM      3  C   UNL     1     -15.730   9.102 -17.501  0.00  0.00    +0.073 C 
ATOM      4  N   UNL     1     -14.103   7.083 -17.440  0.00  0.00    -0.244 NA
ATOM      5  C   UNL     1     -13.986   5.776 -16.810  0.00  0.00    +0.080 A 
ATOM      6  C   UNL     1     -12.951   4.732 -16.902  0.00  0.00    +0.057 A 
ATOM      7  C   UNL     1     -12.945   3.430 -16.208  0.00  0.00    +0.111 A 
ATOM      8  C   UNL     1     -14.080   3.266 -15.406  0.00  0.00    +0.030 A 
ATOM      9  C   UNL     1     -15.114   4.249 -15.279  0.00  0.00    +0.019 A 
ATOM     10  C   UNL     1     -15.058   5.484 -15.977  0.00  0.00    +0.039 A 
ENDROOT
BRANCH   7  11
ATOM     11  S   UNL     1     -11.902   2.356 -16.295  0.00  0.00    +0.074 S 
ATOM     12  O   UNL     1     -11.720   2.589 -17.735  0.00  0.00    -0.150 OA
ATOM     13  O   UNL     1     -11.039   3.058 -15.334  0.00  0.00    -0.150 OA
BRANCH  11  14
ATOM     14  N   UNL     1     -10.858   1.282 -16.383  0.00  0.00    -0.186 N 
ATOM     15  H   UNL     1      -9.908   1.615 -16.281  0.00  0.00    +0.177 HD
ATOM     16  C   UNL     1     -11.124  -0.066 -16.602  0.00  0.00    +0.229 C 
ATOM     17  C   UNL     1      -9.910  -0.944 -16.678  0.00  0.00    +0.111 C 
ATOM     18  O   UNL     1     -12.266  -0.485 -16.743  0.00  0.00    -0.275 OA
ENDBRANCH  11  14
ENDBRANCH   7  11
TORSDOF 2
ENDMDL
MODEL 3
REMARK VINA RESULT:      -5.7      2.760      6.597
REMARK  Name = min_compound950.pdb
REMARK  4 active torsions:
REMARK  status: ('A' for Active; 'I' for Inactive)
REMARK    1  A    between atoms: _7  and  _14
REMARK    2  A    between atoms: _9  and  _17
REMARK    3  A    between atoms: _10  and  _12
REMARK    4  A    between atoms: _13  and  _14
REMARK                            x       y       z     vdW  Elec       q    Type
REMARK                         _______ _______ _______ _____ _____    ______ ____
ROOT
ATOM      1  S   UNL     1     -10.155   1.506 -16.330  0.00  0.00    -0.072 S 
ATOM      2  C   UNL     1     -11.595   0.536 -16.524  0.00  0.00    +0.076 A 
ATOM      3  C   UNL     1     -11.472  -0.947 -16.338  0.00  0.00    +0.073 C 
ATOM      4  N   UNL     1     -12.653   1.309 -16.829  0.00  0.00    -0.244 NA
ATOM      5  C   UNL     1     -12.336   2.727 -16.917  0.00  0.00    +0.080 A 
ATOM      6  C   UNL     1     -13.171   3.902 -17.219  0.00  0.00    +0.057 A 
ATOM      7  C   UNL     1     -12.728   5.309 -17.282  0.00  0.00    +0.111 A 
ATOM      8  C   UNL     1     -11.361   5.433 -17.013  0.00  0.00    +0.030 A 
ATOM      9  C   UNL     1     -10.504   4.325 -16.712  0.00  0.00    +0.019 A 
ATOM     10  C   UNL     1     -10.996   2.993 -16.668  0.00  0.00    +0.039 A 
ENDROOT
BRANCH   7  11
ATOM     11  S   UNL     1     -13.565   6.514 -17.593  0.00  0.00    +0.074 S 
ATOM     12  O   UNL     1     -12.373   7.314 -17.911  0.00  0.00    -0.150 OA
ATOM     13  O   UNL     1     -14.267   5.800 -18.670  0.00  0.00    -0.150 OA
BRANCH  11  14
ATOM     14  N   UNL     1     -14.402   7.719 -17.904  0.00  0.00    -0.186 N 
ATOM     15  H   UNL     1     -14.331   8.040 -18.861  0.00  0.00    +0.177 HD
ATOM     16  C   UNL     1     -15.208   8.383 -16.984  0.00  0.00    +0.229 C 
ATOM     17  C   UNL     1     -15.929   9.581 -17.528  0.00  0.00    +0.111 C 
ATOM     18  O   UNL     1     -15.295   8.018 -15.819  0.00  0.00    -0.275 OA
ENDBRANCH  11  14
ENDBRANCH   7  11
TORSDOF 2
ENDMDL
MODEL 4
REMARK VINA RESULT:      -5.6      3.471      6.698
REMARK  Name = min_compound950.pdb
REMARK  4 active torsions:
REMARK  status: ('A' for Active; 'I' for Inactive)
REMARK    1  A    between atoms: _7  and  _14
REMARK    2  A    between atoms: _9  and  _17
REMARK    3  A    between atoms: _10  and  _12
REMARK    4  A    between atoms: _13  and  _14
REMARK                            x       y       z     vdW  Elec       q    Type
REMARK                         _______ _______ _______ _____ _____    ______ ____
ROOT
ATOM      1  S   UNL     1     -10.182   1.633 -17.191  0.00  0.00    -0.072 S 
ATOM      2  C   UNL     1     -10.762  -0.013 -17.273  0.00  0.00    +0.076 A 
ATOM      3  C   UNL     1      -9.800  -1.073 -17.721  0.00  0.00    +0.073 C 
ATOM      4  N   UNL     1     -12.054  -0.082 -16.904  0.00  0.00    -0.244 NA
ATOM      5  C   UNL     1     -12.627   1.204 -16.536  0.00  0.00    +0.080 A 
ATOM      6  C   UNL     1     -13.976   1.582 -16.080  0.00  0.00    +0.057 A 
ATOM      7  C   UNL     1     -14.444   2.939 -15.736  0.00  0.00    +0.111 A 
ATOM      8  C   UNL     1     -13.430   3.891 -15.890  0.00  0.00    +0.030 A 
ATOM      9  C   UNL     1     -12.103   3.577 -16.328  0.00  0.00    +0.019 A 
ATOM     10  C   UNL     1     -11.717   2.247 -16.644  0.00  0.00    +0.039 A 
ENDROOT
BRANCH   7  11
ATOM     11  S   UNL     1     -15.814   3.340 -15.276  0.00  0.00    +0.074 S 
ATOM     12  O   UNL     1     -15.295   4.572 -14.664  0.00  0.00    -0.150 OA
ATOM     13  O   UNL     1     -16.314   3.372 -16.658  0.00  0.00    -0.150 OA
BRANCH  11  14
ATOM     14  N   UNL     1     -17.184   3.740 -14.815  0.00  0.00    -0.186 N 
ATOM     15  H   UNL     1     -17.670   4.365 -15.446  0.00  0.00    +0.177 HD
ATOM     16  C   UNL     1     -17.771   3.329 -13.623  0.00  0.00    +0.229 C 
ATOM     17  C   UNL     1     -19.141   3.887 -13.370  0.00  0.00    +0.111 C 
ATOM     18  O   UNL     1     -17.194   2.586 -12.840  0.00  0.00    -0.275 OA
ENDBRANCH  11  14
ENDBRANCH   7  11
TORSDOF 2
ENDMDL
MODEL 5
REMARK VINA RESULT:      -5.6      2.682      6.664
REMARK  Name = min_compound950.pdb
REMARK  4 active torsions:
REMARK  status: ('A' for Active; 'I' for Inactive)
REMARK    1  A    between atoms: _7  and  _14
REMARK    2  A    between atoms: _9  and  _17
REMARK    3  A    between atoms: _10  and  _12
REMARK    4  A    between atoms: _13  and  _14
REMARK                            x       y       z     vdW  Elec       q    Type
REMARK                         _______ _______ _______ _____ _____    ______ ____
ROOT
ATOM      1  S   UNL     1     -11.358   0.236 -17.716  0.00  0.00    -0.072 S 
ATOM      2  C   UNL     1     -10.618   0.431 -16.145  0.00  0.00    +0.076 A 
ATOM      3  C   UNL     1      -9.802  -0.707 -15.608  0.00  0.00    +0.073 C 
ATOM      4  N   UNL     1     -10.909   1.639 -15.628  0.00  0.00    -0.244 NA
ATOM      5  C   UNL     1     -11.747   2.458 -16.491  0.00  0.00    +0.080 A 
ATOM      6  C   UNL     1     -12.294   3.816 -16.324  0.00  0.00    +0.057 A 
ATOM      7  C   UNL     1     -13.146   4.549 -17.281  0.00  0.00    +0.111 A 
ATOM      8  C   UNL     1     -13.403   3.792 -18.429  0.00  0.00    +0.030 A 
ATOM      9  C   UNL     1     -12.896   2.469 -18.642  0.00  0.00    +0.019 A 
ATOM     10  C   UNL     1     -12.079   1.820 -17.678  0.00  0.00    +0.039 A 
ENDROOT
BRANCH   7  11
ATOM     11  S   UNL     1     -13.713   5.928 -17.123  0.00  0.00    +0.074 S 
ATOM     12  O   UNL     1     -12.410   6.544 -17.412  0.00  0.00    -0.150 OA
ATOM     13  O   UNL     1     -14.668   5.705 -18.219  0.00  0.00    -0.150 OA
BRANCH  11  14
ATOM     14  N   UNL     1     -14.281   7.308 -16.966  0.00  0.00    -0.186 N 
ATOM     15  H   UNL     1     -13.961   7.972 -17.659  0.00  0.00    +0.177 HD
ATOM     16  C   UNL     1     -15.160   7.693 -15.959  0.00  0.00    +0.229 C 
ATOM     17  C   UNL     1     -15.567   9.136 -15.995  0.00  0.00    +0.111 C 
ATOM     18  O   UNL     1     -15.546   6.908 -15.102  0.00  0.00    -0.275 OA
ENDBRANCH  11  14
ENDBRANCH   7  11
TORSDOF 2
ENDMDL
MODEL 6
REMARK VINA RESULT:      -5.4      4.639      5.207
REMARK  Name = min_compound950.pdb
REMARK  4 active torsions:
REMARK  status: ('A' for Active; 'I' for Inactive)
REMARK    1  A    between atoms: _7  and  _14
REMARK    2  A    between atoms: _9  and  _17
REMARK    3  A    between atoms: _10  and  _12
REMARK    4  A    between atoms: _13  and  _14
REMARK                            x       y       z     vdW  Elec       q    Type
REMARK                         _______ _______ _______ _____ _____    ______ ____
ROOT
ATOM      1  S   UNL     1     -17.797   4.182 -10.963  0.00  0.00    -0.072 S 
ATOM      2  C   UNL     1     -16.553   5.293 -10.442  0.00  0.00    +0.076 A 
ATOM      3  C   UNL     1     -16.772   6.041  -9.160  0.00  0.00    +0.073 C 
ATOM      4  N   UNL     1     -15.532   5.311 -11.318  0.00  0.00    -0.244 NA
ATOM      5  C   UNL     1     -15.720   4.418 -12.452  0.00  0.00    +0.080 A 
ATOM      6  C   UNL     1     -14.873   4.129 -13.623  0.00  0.00    +0.057 A 
ATOM      7  C   UNL     1     -15.176   3.193 -14.723  0.00  0.00    +0.111 A 
ATOM      8  C   UNL     1     -16.415   2.568 -14.543  0.00  0.00    +0.030 A 
ATOM      9  C   UNL     1     -17.276   2.812 -13.425  0.00  0.00    +0.019 A 
ATOM     10  C   UNL     1     -16.923   3.728 -12.398  0.00  0.00    +0.039 A 
ENDROOT
BRANCH   7  11
ATOM     11  S   UNL     1     -14.327   2.892 -15.922  0.00  0.00    +0.074 S 
ATOM     12  O   UNL     1     -15.354   3.415 -16.835  0.00  0.00    -0.150 OA
ATOM     13  O   UNL     1     -13.262   3.785 -15.444  0.00  0.00    -0.150 OA
BRANCH  11  14
ATOM     14  N   UNL     1     -13.478   2.591 -17.121  0.00  0.00    -0.186 N 
ATOM     15  H   UNL     1     -13.513   3.297 -17.845  0.00  0.00    +0.177 HD
ATOM     16  C   UNL     1     -12.707   1.444 -17.278  0.00  0.00    +0.229 C 
ATOM     17  C   UNL     1     -11.965   1.356 -18.579  0.00  0.00    +0.111 C 
ATOM     18  O   UNL     1     -12.664   0.571 -16.420  0.00  0.00    -0.275 OA
ENDBRANCH  11  14
ENDBRANCH   7  11
TORSDOF 2
ENDMDL
MODEL 7
REMARK VINA RESULT:      -5.3      3.293      6.572
REMARK  Name = min_compound950.pdb
REMARK  4 active torsions:
REMARK  status: ('A' for Active; 'I' for Inactive)
REMARK    1  A    between atoms: _7  and  _14
REMARK    2  A    between atoms: _9  and  _17
REMARK    3  A    between atoms: _10  and  _12
REMARK    4  A    between atoms: _13  and  _14
REMARK                            x       y       z     vdW  Elec       q    Type
REMARK                         _______ _______ _______ _____ _____    ______ ____
ROOT
ATOM      1  S   UNL     1     -10.441   1.633 -15.761  0.00  0.00    -0.072 S 
ATOM      2  C   UNL     1     -11.407   0.432 -16.583  0.00  0.00    +0.076 A 
ATOM      3  C   UNL     1     -11.209  -1.006 -16.205  0.00  0.00    +0.073 C 
ATOM      4  N   UNL     1     -12.225   1.011 -17.481  0.00  0.00    -0.244 NA
ATOM      5  C   UNL     1     -12.100   2.460 -17.536  0.00  0.00    +0.080 A 
ATOM      6  C   UNL     1     -12.788   3.473 -18.356  0.00  0.00    +0.057 A 
ATOM      7  C   UNL     1     -12.570   4.932 -18.323  0.00  0.00    +0.111 A 
ATOM      8  C   UNL     1     -11.594   5.288 -17.386  0.00  0.00    +0.030 A 
ATOM      9  C   UNL     1     -10.897   4.345 -16.564  0.00  0.00    +0.019 A 
ATOM     10  C   UNL     1     -11.155   2.951 -16.646  0.00  0.00    +0.039 A 
ENDROOT
BRANCH   7  11
ATOM     11  S   UNL     1     -13.258   5.974 -19.154  0.00  0.00    +0.074 S 
ATOM     12  O   UNL     1     -13.043   7.000 -18.124  0.00  0.00    -0.150 OA
ATOM     13  O   UNL     1     -12.276   5.818 -20.238  0.00  0.00    -0.150 OA
BRANCH  11  14
ATOM     14  N   UNL     1     -13.946   7.016 -19.986  0.00  0.00    -0.186 N 
ATOM     15  H   UNL     1     -13.524   7.934 -19.937  0.00  0.00    +0.177 HD
ATOM     16  C   UNL     1     -15.081   6.791 -20.758  0.00  0.00    +0.229 C 
ATOM     17  C   UNL     1     -15.602   7.999 -21.480  0.00  0.00    +0.111 C 
ATOM     18  O   UNL     1     -15.615   5.691 -20.818  0.00  0.00    -0.275 OA
ENDBRANCH  11  14
ENDBRANCH   7  11
TORSDOF 2
ENDMDL
MODEL 8
REMARK VINA RESULT:      -5.2      3.395      7.117
REMARK  Name = min_compound950.pdb
REMARK  4 active torsions:
REMARK  status: ('A' for Active; 'I' for Inactive)
REMARK    1  A    between atoms: _7  and  _14
REMARK    2  A    between atoms: _9  and  _17
REMARK    3  A    between atoms: _10  and  _12
REMARK    4  A    between atoms: _13  and  _14
REMARK                            x       y       z     vdW  Elec       q    Type
REMARK                         _______ _______ _______ _____ _____    ______ ____
ROOT
ATOM      1  S   UNL     1     -12.734   1.767 -16.740  0.00  0.00    -0.072 S 
ATOM      2  C   UNL     1     -11.200   2.418 -17.265  0.00  0.00    +0.076 A 
ATOM      3  C   UNL     1     -10.085   1.453 -17.538  0.00  0.00    +0.073 C 
ATOM      4  N   UNL     1     -11.254   3.760 -17.348  0.00  0.00    -0.244 NA
ATOM      5  C   UNL     1     -12.551   4.316 -16.988  0.00  0.00    +0.080 A 
ATOM      6  C   UNL     1     -13.043   5.703 -16.939  0.00  0.00    +0.057 A 
ATOM      7  C   UNL     1     -14.395   6.147 -16.549  0.00  0.00    +0.111 A 
ATOM      8  C   UNL     1     -15.217   5.066 -16.211  0.00  0.00    +0.030 A 
ATOM      9  C   UNL     1     -14.790   3.700 -16.243  0.00  0.00    +0.019 A 
ATOM     10  C   UNL     1     -13.471   3.340 -16.628  0.00  0.00    +0.039 A 
ENDROOT
BRANCH   7  11
ATOM     11  S   UNL     1     -14.909   7.555 -16.490  0.00  0.00    +0.074 S 
ATOM     12  O   UNL     1     -13.972   7.987 -17.537  0.00  0.00    -0.150 OA
ATOM     13  O   UNL     1     -16.263   7.121 -16.864  0.00  0.00    -0.150 OA
BRANCH  11  14
ATOM     14  N   UNL     1     -15.423   8.963 -16.430  0.00  0.00    -0.186 N 
ATOM     15  H   UNL     1     -15.389   9.457 -17.313  0.00  0.00    +0.177 HD
ATOM     16  C   UNL     1     -15.898   9.585 -15.280  0.00  0.00    +0.229 C 
ATOM     17  C   UNL     1     -16.332  11.009 -15.467  0.00  0.00    +0.111 C 
ATOM     18  O   UNL     1     -15.932   9.009 -14.200  0.00  0.00    -0.275 OA
ENDBRANCH  11  14
ENDBRANCH   7  11
TORSDOF 2
ENDMDL
MODEL 9
REMARK VINA RESULT:      -5.2     12.127     12.718
REMARK  Name = min_compound950.pdb
REMARK  4 active torsions:
REMARK  status: ('A' for Active; 'I' for Inactive)
REMARK    1  A    between atoms: _7  and  _14
REMARK    2  A    between atoms: _9  and  _17
REMARK    3  A    between atoms: _10  and  _12
REMARK    4  A    between atoms: _13  and  _14
REMARK                            x       y       z     vdW  Elec       q    Type
REMARK                         _______ _______ _______ _____ _____    ______ ____
ROOT
ATOM      1  S   UNL     1     -16.283   2.480  -8.856  0.00  0.00    -0.072 S 
ATOM      2  C   UNL     1     -17.874   2.747  -8.186  0.00  0.00    +0.076 A 
ATOM      3  C   UNL     1     -18.866   3.507  -9.015  0.00  0.00    +0.073 C 
ATOM      4  N   UNL     1     -17.973   2.202  -6.960  0.00  0.00    -0.244 NA
ATOM      5  C   UNL     1     -16.754   1.541  -6.514  0.00  0.00    +0.080 A 
ATOM      6  C   UNL     1     -16.425   0.829  -5.267  0.00  0.00    +0.057 A 
ATOM      7  C   UNL     1     -15.137   0.195  -4.926  0.00  0.00    +0.111 A 
ATOM      8  C   UNL     1     -14.200   0.341  -5.955  0.00  0.00    +0.030 A 
ATOM      9  C   UNL     1     -14.468   1.022  -7.186  0.00  0.00    +0.019 A 
ATOM     10  C   UNL     1     -15.733   1.611  -7.452  0.00  0.00    +0.039 A 
ENDROOT
BRANCH   7  11
ATOM     11  S   UNL     1     -14.786  -0.529  -3.660  0.00  0.00    +0.074 S 
ATOM     12  O   UNL     1     -14.070   0.643  -3.137  0.00  0.00    -0.150 OA
ATOM     13  O   UNL     1     -16.206  -0.719  -3.326  0.00  0.00    -0.150 OA
BRANCH  11  14
ATOM     14  N   UNL     1     -14.435  -1.253  -2.394  0.00  0.00    -0.186 N 
ATOM     15  H   UNL     1     -14.303  -0.650  -1.592  0.00  0.00    +0.177 HD
ATOM     16  C   UNL     1     -14.276  -2.631  -2.287  0.00  0.00    +0.229 C 
ATOM     17  C   UNL     1     -13.897  -3.117  -0.919  0.00  0.00    +0.111 C 
ATOM     18  O   UNL     1     -14.417  -3.375  -3.249  0.00  0.00    -0.275 OA
ENDBRANCH  11  14
ENDBRANCH   7  11
TORSDOF 2
ENDMDL
