MODEL 1
REMARK VINA RESULT:      -7.2      0.000      0.000
REMARK  Name = min_compound981.pdb
REMARK  7 active torsions:
REMARK  status: ('A' for Active; 'I' for Inactive)
REMARK    1  A    between atoms: _3  and  _7
REMARK    2  A    between atoms: _6  and  _19
REMARK    3  A    between atoms: _8  and  _9
REMARK    4  A    between atoms: _8  and  _10
REMARK    5  A    between atoms: _9  and  _13
REMARK    6  A    between atoms: _10  and  _11
REMARK    7  A    between atoms: _19  and  _20
REMARK                            x       y       z     vdW  Elec       q    Type
REMARK                         _______ _______ _______ _____ _____    ______ ____
ROOT
ATOM      1  C   UNL     1     -13.682   3.949 -17.359  0.00  0.00    +0.016 C 
ATOM      2  C   UNL     1     -12.431   3.163 -17.288  0.00  0.00    +0.014 C 
ENDROOT
BRANCH   1   4
ATOM      3  C   UNL     1     -13.902   6.398 -17.264  0.00  0.00    +0.008 A 
ATOM      4  C   UNL     1     -14.210   5.152 -16.686  0.00  0.00    -0.025 A 
ATOM      5  C   UNL     1     -15.019   5.157 -15.546  0.00  0.00    +0.008 A 
ATOM      6  C   UNL     1     -15.485   6.356 -14.985  0.00  0.00    +0.005 A 
ATOM      7  C   UNL     1     -15.161   7.576 -15.571  0.00  0.00    -0.034 A 
ATOM      8  C   UNL     1     -14.372   7.599 -16.716  0.00  0.00    +0.005 A 
BRANCH   7   9
ATOM      9  C   UNL     1     -15.643   8.797 -15.004  0.00  0.00    +0.113 C 
BRANCH   9  10
ATOM     10  N   UNL     1     -16.130  10.039 -14.425  0.00  0.00    -0.326 NA
ATOM     11  H   UNL     1     -17.079   9.902 -14.077  0.00  0.00    +0.119 HD
ATOM     12  H   UNL     1     -15.523  10.316 -13.655  0.00  0.00    +0.119 HD
ENDBRANCH   9  10
ENDBRANCH   7   9
ENDBRANCH   1   4
BRANCH   2  13
ATOM     13  C   UNL     1     -12.301   2.020 -18.042  0.00  0.00    +0.190 C 
ATOM     14  O   UNL     1     -12.859   1.794 -19.168  0.00  0.00    -0.287 OA
BRANCH  13  15
ATOM     15  C   UNL     1     -11.385   0.927 -17.522  0.00  0.00    +0.022 A 
ATOM     16  C   UNL     1      -9.992   0.929 -17.694  0.00  0.00    +0.012 A 
ATOM     17  C   UNL     1      -9.193  -0.068 -17.125  0.00  0.00    +0.001 A 
ATOM     18  C   UNL     1      -9.765  -1.062 -16.326  0.00  0.00    +0.000 A 
ATOM     19  C   UNL     1     -11.136  -1.061 -16.105  0.00  0.00    +0.001 A 
ATOM     20  C   UNL     1     -11.933  -0.082 -16.703  0.00  0.00    +0.012 A 
ENDBRANCH  13  15
ENDBRANCH   2  13
BRANCH   2  21
ATOM     21  C   UNL     1     -11.411   3.663 -16.308  0.00  0.00    +0.117 C 
BRANCH  21  22
ATOM     22  N   UNL     1     -10.392   4.163 -15.328  0.00  0.00    -0.326 NA
ATOM     23  H   UNL     1     -10.866   4.597 -14.536  0.00  0.00    +0.119 HD
ATOM     24  H   UNL     1      -9.825   3.381 -14.999  0.00  0.00    +0.119 HD
ENDBRANCH  21  22
ENDBRANCH   2  21
TORSDOF 7
ENDMDL
MODEL 2
REMARK VINA RESULT:      -7.2      2.543      3.399
REMARK  Name = min_compound981.pdb
REMARK  7 active torsions:
REMARK  status: ('A' for Active; 'I' for Inactive)
REMARK    1  A    between atoms: _3  and  _7
REMARK    2  A    between atoms: _6  and  _19
REMARK    3  A    between atoms: _8  and  _9
REMARK    4  A    between atoms: _8  and  _10
REMARK    5  A    between atoms: _9  and  _13
REMARK    6  A    between atoms: _10  and  _11
REMARK    7  A    between atoms: _19  and  _20
REMARK                            x       y       z     vdW  Elec       q    Type
REMARK                         _______ _______ _______ _____ _____    ______ ____
ROOT
ATOM      1  C   UNL     1     -14.241   2.265 -16.188  0.00  0.00    +0.016 C 
ATOM      2  C   UNL     1     -13.356   2.768 -17.260  0.00  0.00    +0.014 C 
ENDROOT
BRANCH   1   4
ATOM      3  C   UNL     1     -16.281   2.281 -14.812  0.00  0.00    +0.008 A 
ATOM      4  C   UNL     1     -15.042   2.877 -15.108  0.00  0.00    -0.025 A 
ATOM      5  C   UNL     1     -14.657   3.974 -14.333  0.00  0.00    +0.008 A 
ATOM      6  C   UNL     1     -15.484   4.478 -13.317  0.00  0.00    +0.005 A 
ATOM      7  C   UNL     1     -16.709   3.874 -13.046  0.00  0.00    -0.034 A 
ATOM      8  C   UNL     1     -17.108   2.770 -13.793  0.00  0.00    +0.005 A 
BRANCH   7   9
ATOM      9  C   UNL     1     -17.547   4.382 -12.006  0.00  0.00    +0.113 C 
BRANCH   9  10
ATOM     10  N   UNL     1     -18.398   4.901 -10.947  0.00  0.00    -0.326 NA
ATOM     11  H   UNL     1     -19.364   4.931 -11.271  0.00  0.00    +0.119 HD
ATOM     12  H   UNL     1     -18.332   4.294 -10.130  0.00  0.00    +0.119 HD
ENDBRANCH   9  10
ENDBRANCH   7   9
ENDBRANCH   1   4
BRANCH   2  13
ATOM     13  C   UNL     1     -12.700   1.877 -18.076  0.00  0.00    +0.190 C 
ATOM     14  O   UNL     1     -12.850   1.759 -19.338  0.00  0.00    -0.287 OA
BRANCH  13  15
ATOM     15  C   UNL     1     -11.669   0.960 -17.441  0.00  0.00    +0.022 A 
ATOM     16  C   UNL     1     -11.994  -0.207 -16.733  0.00  0.00    +0.012 A 
ATOM     17  C   UNL     1     -10.997  -1.052 -16.237  0.00  0.00    +0.001 A 
ATOM     18  C   UNL     1      -9.649  -0.775 -16.482  0.00  0.00    +0.000 A 
ATOM     19  C   UNL     1      -9.302   0.352 -17.217  0.00  0.00    +0.001 A 
ATOM     20  C   UNL     1     -10.302   1.210 -17.682  0.00  0.00    +0.012 A 
ENDBRANCH  13  15
ENDBRANCH   2  13
BRANCH   2  21
ATOM     21  C   UNL     1     -13.192   4.259 -17.314  0.00  0.00    +0.117 C 
BRANCH  21  22
ATOM     22  N   UNL     1     -13.029   5.749 -17.368  0.00  0.00    -0.326 NA
ATOM     23  H   UNL     1     -13.865   6.196 -16.992  0.00  0.00    +0.119 HD
ATOM     24  H   UNL     1     -12.218   6.022 -16.813  0.00  0.00    +0.119 HD
ENDBRANCH  21  22
ENDBRANCH   2  21
TORSDOF 7
ENDMDL
MODEL 3
REMARK VINA RESULT:      -7.0      3.128      3.930
REMARK  Name = min_compound981.pdb
REMARK  7 active torsions:
REMARK  status: ('A' for Active; 'I' for Inactive)
REMARK    1  A    between atoms: _3  and  _7
REMARK    2  A    between atoms: _6  and  _19
REMARK    3  A    between atoms: _8  and  _9
REMARK    4  A    between atoms: _8  and  _10
REMARK    5  A    between atoms: _9  and  _13
REMARK    6  A    between atoms: _10  and  _11
REMARK    7  A    between atoms: _19  and  _20
REMARK                            x       y       z     vdW  Elec       q    Type
REMARK                         _______ _______ _______ _____ _____    ______ ____
ROOT
ATOM      1  C   UNL     1     -13.681   3.268 -15.337  0.00  0.00    +0.016 C 
ATOM      2  C   UNL     1     -13.336   3.185 -16.773  0.00  0.00    +0.014 C 
ENDROOT
BRANCH   1   4
ATOM      3  C   UNL     1     -15.955   2.519 -14.770  0.00  0.00    +0.008 A 
ATOM      4  C   UNL     1     -14.924   3.453 -14.561  0.00  0.00    -0.025 A 
ATOM      5  C   UNL     1     -15.149   4.454 -13.612  0.00  0.00    +0.008 A 
ATOM      6  C   UNL     1     -16.362   4.540 -12.913  0.00  0.00    +0.005 A 
ATOM      7  C   UNL     1     -17.370   3.608 -13.142  0.00  0.00    -0.034 A 
ATOM      8  C   UNL     1     -17.167   2.592 -14.069  0.00  0.00    +0.005 A 
BRANCH   7   9
ATOM      9  C   UNL     1     -18.604   3.692 -12.423  0.00  0.00    +0.113 C 
BRANCH   9  10
ATOM     10  N   UNL     1     -19.857   3.775 -11.691  0.00  0.00    -0.326 NA
ATOM     11  H   UNL     1     -20.617   3.428 -12.277  0.00  0.00    +0.119 HD
ATOM     12  H   UNL     1     -19.795   3.208 -10.845  0.00  0.00    +0.119 HD
ENDBRANCH   9  10
ENDBRANCH   7   9
ENDBRANCH   1   4
BRANCH   2  13
ATOM     13  C   UNL     1     -12.019   3.069 -17.151  0.00  0.00    +0.190 C 
ATOM     14  O   UNL     1     -11.277   4.009 -17.593  0.00  0.00    -0.287 OA
BRANCH  13  15
ATOM     15  C   UNL     1     -11.356   1.711 -17.005  0.00  0.00    +0.022 A 
ATOM     16  C   UNL     1     -12.043   0.542 -16.642  0.00  0.00    +0.012 A 
ATOM     17  C   UNL     1     -11.391  -0.694 -16.598  0.00  0.00    +0.001 A 
ATOM     18  C   UNL     1     -10.047  -0.798 -16.968  0.00  0.00    +0.000 A 
ATOM     19  C   UNL     1      -9.356   0.337 -17.372  0.00  0.00    +0.001 A 
ATOM     20  C   UNL     1     -10.003   1.575 -17.381  0.00  0.00    +0.012 A 
ENDBRANCH  13  15
ENDBRANCH   2  13
BRANCH   2  21
ATOM     21  C   UNL     1     -14.491   3.313 -17.722  0.00  0.00    +0.117 C 
BRANCH  21  22
ATOM     22  N   UNL     1     -15.646   3.441 -18.670  0.00  0.00    -0.326 NA
ATOM     23  H   UNL     1     -16.453   2.943 -18.293  0.00  0.00    +0.119 HD
ATOM     24  H   UNL     1     -15.880   4.427 -18.790  0.00  0.00    +0.119 HD
ENDBRANCH  21  22
ENDBRANCH   2  21
TORSDOF 7
ENDMDL
MODEL 4
REMARK VINA RESULT:      -6.6      7.887      9.886
REMARK  Name = min_compound981.pdb
REMARK  7 active torsions:
REMARK  status: ('A' for Active; 'I' for Inactive)
REMARK    1  A    between atoms: _3  and  _7
REMARK    2  A    between atoms: _6  and  _19
REMARK    3  A    between atoms: _8  and  _9
REMARK    4  A    between atoms: _8  and  _10
REMARK    5  A    between atoms: _9  and  _13
REMARK    6  A    between atoms: _10  and  _11
REMARK    7  A    between atoms: _19  and  _20
REMARK                            x       y       z     vdW  Elec       q    Type
REMARK                         _______ _______ _______ _____ _____    ______ ____
ROOT
ATOM      1  C   UNL     1     -16.903   2.339  -9.096  0.00  0.00    +0.016 C 
ATOM      2  C   UNL     1     -17.252   3.575  -9.830  0.00  0.00    +0.014 C 
ENDROOT
BRANCH   1   4
ATOM      3  C   UNL     1     -14.979   1.424  -7.865  0.00  0.00    +0.008 A 
ATOM      4  C   UNL     1     -16.249   2.027  -7.809  0.00  0.00    -0.025 A 
ATOM      5  C   UNL     1     -16.767   2.312  -6.543  0.00  0.00    +0.008 A 
ATOM      6  C   UNL     1     -16.062   1.988  -5.374  0.00  0.00    +0.005 A 
ATOM      7  C   UNL     1     -14.810   1.386  -5.455  0.00  0.00    -0.034 A 
ATOM      8  C   UNL     1     -14.263   1.106  -6.703  0.00  0.00    +0.005 A 
BRANCH   7   9
ATOM      9  C   UNL     1     -14.088   1.063  -4.264  0.00  0.00    +0.113 C 
BRANCH   9  10
ATOM     10  N   UNL     1     -13.355   0.737  -3.051  0.00  0.00    -0.326 NA
ATOM     11  H   UNL     1     -12.469   1.242  -3.044  0.00  0.00    +0.119 HD
ATOM     12  H   UNL     1     -13.906   1.008  -2.237  0.00  0.00    +0.119 HD
ENDBRANCH   9  10
ENDBRANCH   7   9
ENDBRANCH   1   4
BRANCH   2  13
ATOM     13  C   UNL     1     -17.821   3.487 -11.079  0.00  0.00    +0.190 C 
ATOM     14  O   UNL     1     -19.067   3.377 -11.332  0.00  0.00    -0.287 OA
BRANCH  13  15
ATOM     15  C   UNL     1     -16.901   3.562 -12.284  0.00  0.00    +0.022 A 
ATOM     16  C   UNL     1     -15.743   4.353 -12.334  0.00  0.00    +0.012 A 
ATOM     17  C   UNL     1     -14.894   4.320 -13.445  0.00  0.00    +0.001 A 
ATOM     18  C   UNL     1     -15.157   3.456 -14.511  0.00  0.00    +0.000 A 
ATOM     19  C   UNL     1     -16.274   2.631 -14.467  0.00  0.00    +0.001 A 
ATOM     20  C   UNL     1     -17.137   2.692 -13.369  0.00  0.00    +0.012 A 
ENDBRANCH  13  15
ENDBRANCH   2  13
BRANCH   2  21
ATOM     21  C   UNL     1     -16.872   4.857  -9.150  0.00  0.00    +0.117 C 
BRANCH  21  22
ATOM     22  N   UNL     1     -16.492   6.139  -8.470  0.00  0.00    -0.326 NA
ATOM     23  H   UNL     1     -17.274   6.793  -8.515  0.00  0.00    +0.119 HD
ATOM     24  H   UNL     1     -16.260   5.951  -7.495  0.00  0.00    +0.119 HD
ENDBRANCH  21  22
ENDBRANCH   2  21
TORSDOF 7
ENDMDL
MODEL 5
REMARK VINA RESULT:      -6.5      8.794     10.116
REMARK  Name = min_compound981.pdb
REMARK  7 active torsions:
REMARK  status: ('A' for Active; 'I' for Inactive)
REMARK    1  A    between atoms: _3  and  _7
REMARK    2  A    between atoms: _6  and  _19
REMARK    3  A    between atoms: _8  and  _9
REMARK    4  A    between atoms: _8  and  _10
REMARK    5  A    between atoms: _9  and  _13
REMARK    6  A    between atoms: _10  and  _11
REMARK    7  A    between atoms: _19  and  _20
REMARK                            x       y       z     vdW  Elec       q    Type
REMARK                         _______ _______ _______ _____ _____    ______ ____
ROOT
ATOM      1  C   UNL     1     -16.022   2.467  -8.718  0.00  0.00    +0.016 C 
ATOM      2  C   UNL     1     -16.724   1.405  -7.964  0.00  0.00    +0.014 C 
ENDROOT
BRANCH   1   4
ATOM      3  C   UNL     1     -16.462   4.843  -9.184  0.00  0.00    +0.008 A 
ATOM      4  C   UNL     1     -16.421   3.523  -9.670  0.00  0.00    -0.025 A 
ATOM      5  C   UNL     1     -16.726   3.327 -11.020  0.00  0.00    +0.008 A 
ATOM      6  C   UNL     1     -17.083   4.399 -11.852  0.00  0.00    +0.005 A 
ATOM      7  C   UNL     1     -17.122   5.696 -11.347  0.00  0.00    -0.034 A 
ATOM      8  C   UNL     1     -16.807   5.920 -10.010  0.00  0.00    +0.005 A 
BRANCH   7   9
ATOM      9  C   UNL     1     -17.478   6.789 -12.197  0.00  0.00    +0.113 C 
BRANCH   9  10
ATOM     10  N   UNL     1     -17.839   7.902 -13.059  0.00  0.00    -0.326 NA
ATOM     11  H   UNL     1     -18.854   7.953 -13.142  0.00  0.00    +0.119 HD
ATOM     12  H   UNL     1     -17.487   8.771 -12.658  0.00  0.00    +0.119 HD
ENDBRANCH   9  10
ENDBRANCH   7   9
ENDBRANCH   1   4
BRANCH   2  13
ATOM     13  C   UNL     1     -16.002   0.529  -7.190  0.00  0.00    +0.190 C 
ATOM     14  O   UNL     1     -15.810  -0.710  -7.434  0.00  0.00    -0.287 OA
BRANCH  13  15
ATOM     15  C   UNL     1     -15.331   1.072  -5.941  0.00  0.00    +0.022 A 
ATOM     16  C   UNL     1     -15.912   2.032  -5.098  0.00  0.00    +0.012 A 
ATOM     17  C   UNL     1     -15.276   2.437  -3.920  0.00  0.00    +0.001 A 
ATOM     18  C   UNL     1     -14.068   1.852  -3.531  0.00  0.00    +0.000 A 
ATOM     19  C   UNL     1     -13.494   0.869  -4.326  0.00  0.00    +0.001 A 
ATOM     20  C   UNL     1     -14.116   0.493  -5.519  0.00  0.00    +0.012 A 
ENDBRANCH  13  15
ENDBRANCH   2  13
BRANCH   2  21
ATOM     21  C   UNL     1     -18.207   1.335  -8.180  0.00  0.00    +0.117 C 
BRANCH  21  22
ATOM     22  N   UNL     1     -19.690   1.265  -8.396  0.00  0.00    -0.326 NA
ATOM     23  H   UNL     1     -19.969   1.978  -9.070  0.00  0.00    +0.119 HD
ATOM     24  H   UNL     1     -19.938   0.342  -8.754  0.00  0.00    +0.119 HD
ENDBRANCH  21  22
ENDBRANCH   2  21
TORSDOF 7
ENDMDL
MODEL 6
REMARK VINA RESULT:      -6.4      3.541      7.448
REMARK  Name = min_compound981.pdb
REMARK  7 active torsions:
REMARK  status: ('A' for Active; 'I' for Inactive)
REMARK    1  A    between atoms: _3  and  _7
REMARK    2  A    between atoms: _6  and  _19
REMARK    3  A    between atoms: _8  and  _9
REMARK    4  A    between atoms: _8  and  _10
REMARK    5  A    between atoms: _9  and  _13
REMARK    6  A    between atoms: _10  and  _11
REMARK    7  A    between atoms: _19  and  _20
REMARK                            x       y       z     vdW  Elec       q    Type
REMARK                         _______ _______ _______ _____ _____    ______ ____
ROOT
ATOM      1  C   UNL     1     -14.083   3.864 -15.024  0.00  0.00    +0.016 C 
ATOM      2  C   UNL     1     -15.422   4.349 -15.426  0.00  0.00    +0.014 C 
ENDROOT
BRANCH   1   4
ATOM      3  C   UNL     1     -11.715   3.432 -15.531  0.00  0.00    +0.008 A 
ATOM      4  C   UNL     1     -13.050   2.999 -15.628  0.00  0.00    -0.025 A 
ATOM      5  C   UNL     1     -13.282   1.772 -16.255  0.00  0.00    +0.008 A 
ATOM      6  C   UNL     1     -12.230   1.013 -16.789  0.00  0.00    +0.005 A 
ATOM      7  C   UNL     1     -10.918   1.465 -16.687  0.00  0.00    -0.034 A 
ATOM      8  C   UNL     1     -10.657   2.675 -16.053  0.00  0.00    +0.005 A 
BRANCH   7   9
ATOM      9  C   UNL     1      -9.845   0.687 -17.224  0.00  0.00    +0.113 C 
BRANCH   9  10
ATOM     10  N   UNL     1      -8.755  -0.103 -17.772  0.00  0.00    -0.326 NA
ATOM     11  H   UNL     1      -8.675  -0.979 -17.256  0.00  0.00    +0.119 HD
ATOM     12  H   UNL     1      -8.941  -0.305 -18.755  0.00  0.00    +0.119 HD
ENDBRANCH   9  10
ENDBRANCH   7   9
ENDBRANCH   1   4
BRANCH   2  13
ATOM     13  C   UNL     1     -16.158   5.117 -14.555  0.00  0.00    +0.190 C 
ATOM     14  O   UNL     1     -16.778   6.196 -14.842  0.00  0.00    -0.287 OA
BRANCH  13  15
ATOM     15  C   UNL     1     -16.286   4.638 -13.121  0.00  0.00    +0.022 A 
ATOM     16  C   UNL     1     -17.020   3.503 -12.740  0.00  0.00    +0.012 A 
ATOM     17  C   UNL     1     -17.039   3.068 -11.412  0.00  0.00    +0.001 A 
ATOM     18  C   UNL     1     -16.280   3.728 -10.440  0.00  0.00    +0.000 A 
ATOM     19  C   UNL     1     -15.512   4.828 -10.800  0.00  0.00    +0.001 A 
ATOM     20  C   UNL     1     -15.524   5.279 -12.122  0.00  0.00    +0.012 A 
ENDBRANCH  13  15
ENDBRANCH   2  13
BRANCH   2  21
ATOM     21  C   UNL     1     -15.900   3.879 -16.768  0.00  0.00    +0.117 C 
BRANCH  21  22
ATOM     22  N   UNL     1     -16.379   3.409 -18.109  0.00  0.00    -0.326 NA
ATOM     23  H   UNL     1     -16.268   2.397 -18.174  0.00  0.00    +0.119 HD
ATOM     24  H   UNL     1     -17.363   3.652 -18.223  0.00  0.00    +0.119 HD
ENDBRANCH  21  22
ENDBRANCH   2  21
TORSDOF 7
ENDMDL
MODEL 7
REMARK VINA RESULT:      -6.4      3.115      3.816
REMARK  Name = min_compound981.pdb
REMARK  7 active torsions:
REMARK  status: ('A' for Active; 'I' for Inactive)
REMARK    1  A    between atoms: _3  and  _7
REMARK    2  A    between atoms: _6  and  _19
REMARK    3  A    between atoms: _8  and  _9
REMARK    4  A    between atoms: _8  and  _10
REMARK    5  A    between atoms: _9  and  _13
REMARK    6  A    between atoms: _10  and  _11
REMARK    7  A    between atoms: _19  and  _20
REMARK                            x       y       z     vdW  Elec       q    Type
REMARK                         _______ _______ _______ _____ _____    ______ ____
ROOT
ATOM      1  C   UNL     1     -13.290   3.004 -15.937  0.00  0.00    +0.016 C 
ATOM      2  C   UNL     1     -12.163   3.873 -16.343  0.00  0.00    +0.014 C 
ENDROOT
BRANCH   1   4
ATOM      3  C   UNL     1     -15.492   2.584 -14.924  0.00  0.00    +0.008 A 
ATOM      4  C   UNL     1     -14.762   3.080 -16.020  0.00  0.00    -0.025 A 
ATOM      5  C   UNL     1     -15.490   3.634 -17.077  0.00  0.00    +0.008 A 
ATOM      6  C   UNL     1     -16.892   3.672 -17.059  0.00  0.00    +0.005 A 
ATOM      7  C   UNL     1     -17.593   3.170 -15.966  0.00  0.00    -0.034 A 
ATOM      8  C   UNL     1     -16.892   2.628 -14.893  0.00  0.00    +0.005 A 
BRANCH   7   9
ATOM      9  C   UNL     1     -19.022   3.216 -15.944  0.00  0.00    +0.113 C 
BRANCH   9  10
ATOM     10  N   UNL     1     -20.474   3.265 -15.919  0.00  0.00    -0.326 NA
ATOM     11  H   UNL     1     -20.815   3.692 -16.781  0.00  0.00    +0.119 HD
ATOM     12  H   UNL     1     -20.845   2.318 -15.840  0.00  0.00    +0.119 HD
ENDBRANCH   9  10
ENDBRANCH   7   9
ENDBRANCH   1   4
BRANCH   2  13
ATOM     13  C   UNL     1     -10.874   3.503 -16.041  0.00  0.00    +0.190 C 
ATOM     14  O   UNL     1      -9.976   4.252 -15.529  0.00  0.00    -0.287 OA
BRANCH  13  15
ATOM     15  C   UNL     1     -10.471   2.062 -16.300  0.00  0.00    +0.022 A 
ATOM     16  C   UNL     1      -9.954   1.604 -17.521  0.00  0.00    +0.012 A 
ATOM     17  C   UNL     1      -9.529   0.281 -17.674  0.00  0.00    +0.001 A 
ATOM     18  C   UNL     1      -9.563  -0.602 -16.592  0.00  0.00    +0.000 A 
ATOM     19  C   UNL     1     -10.031  -0.162 -15.361  0.00  0.00    +0.001 A 
ATOM     20  C   UNL     1     -10.486   1.152 -15.223  0.00  0.00    +0.012 A 
ENDBRANCH  13  15
ENDBRANCH   2  13
BRANCH   2  21
ATOM     21  C   UNL     1     -12.551   5.162 -17.006  0.00  0.00    +0.117 C 
BRANCH  21  22
ATOM     22  N   UNL     1     -12.939   6.450 -17.670  0.00  0.00    -0.326 NA
ATOM     23  H   UNL     1     -12.813   6.364 -18.678  0.00  0.00    +0.119 HD
ATOM     24  H   UNL     1     -13.916   6.657 -17.465  0.00  0.00    +0.119 HD
ENDBRANCH  21  22
ENDBRANCH   2  21
TORSDOF 7
ENDMDL
MODEL 8
REMARK VINA RESULT:      -6.4      8.025     10.323
REMARK  Name = min_compound981.pdb
REMARK  7 active torsions:
REMARK  status: ('A' for Active; 'I' for Inactive)
REMARK    1  A    between atoms: _3  and  _7
REMARK    2  A    between atoms: _6  and  _19
REMARK    3  A    between atoms: _8  and  _9
REMARK    4  A    between atoms: _8  and  _10
REMARK    5  A    between atoms: _9  and  _13
REMARK    6  A    between atoms: _10  and  _11
REMARK    7  A    between atoms: _19  and  _20
REMARK                            x       y       z     vdW  Elec       q    Type
REMARK                         _______ _______ _______ _____ _____    ______ ____
ROOT
ATOM      1  C   UNL     1     -16.952   2.084  -9.488  0.00  0.00    +0.016 C 
ATOM      2  C   UNL     1     -17.501   3.454  -9.593  0.00  0.00    +0.014 C 
ENDROOT
BRANCH   1   4
ATOM      3  C   UNL     1     -17.027   0.053  -8.101  0.00  0.00    +0.008 A 
ATOM      4  C   UNL     1     -16.373   1.260  -8.407  0.00  0.00    -0.025 A 
ATOM      5  C   UNL     1     -15.213   1.560  -7.689  0.00  0.00    +0.008 A 
ATOM      6  C   UNL     1     -14.732   0.706  -6.686  0.00  0.00    +0.005 A 
ATOM      7  C   UNL     1     -15.400  -0.481  -6.396  0.00  0.00    -0.034 A 
ATOM      8  C   UNL     1     -16.548  -0.812  -7.108  0.00  0.00    +0.005 A 
BRANCH   7   9
ATOM      9  C   UNL     1     -14.904  -1.355  -5.379  0.00  0.00    +0.113 C 
BRANCH   9  10
ATOM     10  N   UNL     1     -14.400  -2.242  -4.344  0.00  0.00    -0.326 NA
ATOM     11  H   UNL     1     -13.912  -1.695  -3.635  0.00  0.00    +0.119 HD
ATOM     12  H   UNL     1     -15.179  -2.739  -3.912  0.00  0.00    +0.119 HD
ENDBRANCH   9  10
ENDBRANCH   7   9
ENDBRANCH   1   4
BRANCH   2  13
ATOM     13  C   UNL     1     -17.909   3.932 -10.815  0.00  0.00    +0.190 C 
ATOM     14  O   UNL     1     -18.983   4.582 -11.050  0.00  0.00    -0.287 OA
BRANCH  13  15
ATOM     15  C   UNL     1     -16.995   3.707 -12.006  0.00  0.00    +0.022 A 
ATOM     16  C   UNL     1     -17.298   2.843 -13.070  0.00  0.00    +0.012 A 
ATOM     17  C   UNL     1     -16.449   2.736 -14.177  0.00  0.00    +0.001 A 
ATOM     18  C   UNL     1     -15.303   3.531 -14.269  0.00  0.00    +0.000 A 
ATOM     19  C   UNL     1     -15.003   4.424 -13.248  0.00  0.00    +0.001 A 
ATOM     20  C   UNL     1     -15.836   4.502 -12.129  0.00  0.00    +0.012 A 
ENDBRANCH  13  15
ENDBRANCH   2  13
BRANCH   2  21
ATOM     21  C   UNL     1     -17.492   4.250  -8.321  0.00  0.00    +0.117 C 
BRANCH  21  22
ATOM     22  N   UNL     1     -17.484   5.046  -7.050  0.00  0.00    -0.326 NA
ATOM     23  H   UNL     1     -16.526   5.313  -6.822  0.00  0.00    +0.119 HD
ATOM     24  H   UNL     1     -18.052   5.885  -7.170  0.00  0.00    +0.119 HD
ENDBRANCH  21  22
ENDBRANCH   2  21
TORSDOF 7
ENDMDL
MODEL 9
REMARK VINA RESULT:      -6.3      3.545      4.391
REMARK  Name = min_compound981.pdb
REMARK  7 active torsions:
REMARK  status: ('A' for Active; 'I' for Inactive)
REMARK    1  A    between atoms: _3  and  _7
REMARK    2  A    between atoms: _6  and  _19
REMARK    3  A    between atoms: _8  and  _9
REMARK    4  A    between atoms: _8  and  _10
REMARK    5  A    between atoms: _9  and  _13
REMARK    6  A    between atoms: _10  and  _11
REMARK    7  A    between atoms: _19  and  _20
REMARK                            x       y       z     vdW  Elec       q    Type
REMARK                         _______ _______ _______ _____ _____    ______ ____
ROOT
ATOM      1  C   UNL     1     -14.459   4.735 -14.227  0.00  0.00    +0.016 C 
ATOM      2  C   UNL     1     -14.652   3.796 -15.354  0.00  0.00    +0.014 C 
ENDROOT
BRANCH   1   4
ATOM      3  C   UNL     1     -14.882   4.549 -11.810  0.00  0.00    +0.008 A 
ATOM      4  C   UNL     1     -15.243   5.130 -13.039  0.00  0.00    -0.025 A 
ATOM      5  C   UNL     1     -16.287   6.059 -13.026  0.00  0.00    +0.008 A 
ATOM      6  C   UNL     1     -16.966   6.381 -11.841  0.00  0.00    +0.005 A 
ATOM      7  C   UNL     1     -16.594   5.787 -10.638  0.00  0.00    -0.034 A 
ATOM      8  C   UNL     1     -15.547   4.872 -10.619  0.00  0.00    +0.005 A 
BRANCH   7   9
ATOM      9  C   UNL     1     -17.281   6.121  -9.429  0.00  0.00    +0.113 C 
BRANCH   9  10
ATOM     10  N   UNL     1     -17.977   6.464  -8.199  0.00  0.00    -0.326 NA
ATOM     11  H   UNL     1     -17.324   6.898  -7.548  0.00  0.00    +0.119 HD
ATOM     12  H   UNL     1     -18.733   7.116  -8.408  0.00  0.00    +0.119 HD
ENDBRANCH   9  10
ENDBRANCH   7   9
ENDBRANCH   1   4
BRANCH   2  13
ATOM     13  C   UNL     1     -13.708   3.728 -16.351  0.00  0.00    +0.190 C 
ATOM     14  O   UNL     1     -13.591   4.536 -17.333  0.00  0.00    -0.287 OA
BRANCH  13  15
ATOM     15  C   UNL     1     -12.678   2.615 -16.279  0.00  0.00    +0.022 A 
ATOM     16  C   UNL     1     -11.465   2.719 -15.583  0.00  0.00    +0.012 A 
ATOM     17  C   UNL     1     -10.591   1.632 -15.490  0.00  0.00    +0.001 A 
ATOM     18  C   UNL     1     -10.935   0.398 -16.048  0.00  0.00    +0.000 A 
ATOM     19  C   UNL     1     -12.150   0.257 -16.706  0.00  0.00    +0.001 A 
ATOM     20  C   UNL     1     -13.004   1.356 -16.825  0.00  0.00    +0.012 A 
ENDBRANCH  13  15
ENDBRANCH   2  13
BRANCH   2  21
ATOM     21  C   UNL     1     -15.941   3.030 -15.340  0.00  0.00    +0.117 C 
BRANCH  21  22
ATOM     22  N   UNL     1     -17.231   2.264 -15.327  0.00  0.00    -0.326 NA
ATOM     23  H   UNL     1     -17.148   1.469 -14.694  0.00  0.00    +0.119 HD
ATOM     24  H   UNL     1     -17.985   2.874 -15.010  0.00  0.00    +0.119 HD
ENDBRANCH  21  22
ENDBRANCH   2  21
TORSDOF 7
ENDMDL
