@<TRIPOS>MOLECULE
6o0k
111 118 1 0 0
SMALL
AMBER ff14SB


@<TRIPOS>ATOM
      1 C11       -11.2570    0.5630  -17.6880 C.ar      1 LBM   -0.1245
      2 C12       -12.0680    1.6010  -18.0860 C.ar      1 LBM   -0.1155
      3 C13       -15.0160    3.0490  -16.5960 C.3       1 LBM    0.1990
      4 C14       -14.8260    4.3860  -14.5620 C.3       1 LBM    0.1608
      5 C15       -15.5670    4.9970  -13.3670 C.3       1 LBM    0.1923
      6 C16       -17.1930    3.2100  -13.5180 C.3       1 LBM    0.1923
      7 C17       -16.4150    2.5940  -14.6670 C.3       1 LBM    0.1608
      8 C19       -17.3740    3.1040  -10.6610 C.ar      1 LBM   -0.2420
      9 C20       -17.7680    3.2500   -9.3530 C.ar      1 LBM    0.1941
     10 C22       -16.7970    5.4230   -9.2780 C.ar      1 LBM   -0.0410
     11 C23       -16.4120    5.2880  -10.5990 C.ar      1 LBM   -0.2230
     12 C24       -17.9060    4.5940   -7.1870 C.2       1 LBM    0.7307
     13 C25       -16.9300    3.8910   -4.3090 C.ar      1 LBM   -0.4755
     14 C26       -15.6000    3.5600   -4.0520 C.ar      1 LBM    0.1050
     15 C28       -16.2720    1.2480   -3.5340 C.ar      1 LBM    0.3266
     16 C29       -17.5970    1.6270   -3.8270 C.ar      1 LBM   -0.2570
     17 C31       -16.8710   -1.1300   -2.9750 C.3       1 LBM    0.2078
     18 N         -15.7440    3.6500  -15.4610 N.4       1 LBM   -0.7256
     19 C         -12.3770    6.7430  -20.2490 C.3       1 LBM   -0.0861
     20 O         -18.8330    3.9610   -6.6680 O.2       1 LBM   -0.5701
     21 C1        -13.0320    6.0960  -19.0290 C.3       1 LBM   -0.0520
     22 C10       -10.5780    0.6310  -16.4790 C.ar      1 LBM    0.0154
     23 C18       -16.7060    4.1200  -11.3180 C.ar      1 LBM    0.2116
     24 C2        -14.4510    5.6360  -19.3790 C.3       1 LBM   -0.0714
     25 C21       -17.5030    4.4070   -8.6200 C.ar      1 LBM   -0.2156
     26 C27       -15.2900    2.2650   -3.6780 C.ar      1 LBM   -0.3122
     27 C3        -15.1810    5.0840  -18.1630 C.3       1 LBM   -0.0362
     28 C30       -17.9250    2.9380   -4.1870 C.ar      1 LBM    0.0760
     29 C32       -16.2740   -2.2170   -2.0920 C.3       1 LBM   -0.0777
     30 C33       -17.0560   -3.5200   -2.2130 C.3       1 LBM   -0.1129
     31 C34       -16.4140   -4.5860   -1.3510 C.3       1 LBM    0.1269
     32 C35       -14.2990   -3.6180   -1.5400 C.3       1 LBM    0.1269
     33 C36       -14.8200   -2.4990   -2.4110 C.3       1 LBM   -0.1129
     34 C37       -17.6980    1.2410   -8.0340 C.ar      1 LBM   -0.0752
     35 C38       -18.3100    0.0570   -7.6720 C.ar      1 LBM    0.1592
     36 C39       -16.3850   -0.7060   -6.6990 C.ar      1 LBM    0.1808
     37 C4        -14.3240    4.0380  -17.4950 C.2       1 LBM   -0.0974
     38 C40       -15.6900    0.4850   -6.9970 C.ar      1 LBM   -0.1843
     39 C41       -16.3600    1.4750   -7.7080 C.ar      1 LBM   -0.0480
     40 C42       -14.3250    0.2820   -6.5220 C.ar      1 LBM   -0.1880
     41 C43       -14.2800   -0.9750   -6.0050 C.ar      1 LBM   -0.0720
     42 C44       -13.0730    7.1040  -17.8840 C.3       1 LBM   -0.0861
     43 C5        -12.9850    3.8940  -17.7660 C.2       1 LBM   -0.0724
     44 C6        -12.2200    4.8700  -18.6040 C.3       1 LBM   -0.0302
     45 C7        -12.1760    2.7490  -17.3010 C.ar      1 LBM   -0.0488
     46 C8        -11.4990    2.7990  -16.0840 C.ar      1 LBM   -0.1155
     47 C9        -10.7100    1.7510  -15.6720 C.ar      1 LBM   -0.1245
     48 N1        -16.2990    3.9560  -12.6300 N.pl3     1 LBM   -0.6480
     49 N2        -17.1700    5.4960   -6.4440 N.am      1 LBM   -0.6763
     50 N3        -15.9320   -0.0240   -3.1080 N.pl3     1 LBM   -0.7426
     51 N4        -13.8690    1.9970   -3.4910 N.2       1 LBM    0.3282
     52 N5        -17.6780   -0.9430   -7.0430 N.ar      1 LBM   -0.1350
     53 N6        -15.5250   -1.5830   -6.1060 N.ar      1 LBM   -0.3362
     54 O1        -18.6600    5.8650   -4.4680 O.2       1 LBM   -0.6448
     55 O2        -16.2510    6.4230   -4.4000 O.2       1 LBM   -0.6448
     56 O3        -15.0610   -4.8120   -1.7330 O.3       1 LBM   -0.4126
     57 O4        -13.5100    0.8880   -3.1440 O.co2     1 LBM   -0.2285
     58 O5        -13.0850    2.9260   -3.6660 O.co2     1 LBM   -0.2285
     59 O6        -18.4110    2.2020   -8.7210 O.3       1 LBM   -0.2342
     60 S         -17.2960    5.5550   -4.8450 S.o2      1 LBM    1.5249
     61 CL         -9.6200   -0.7070  -15.9500 Cl        1 LBM   -0.0944
     62 H11       -11.1484   -0.3073  -18.3182 H         1 LBM    0.1480
     63 H12       -12.6229    1.5266  -19.0095 H         1 LBM    0.1405
     64 H132      -14.2631    2.3705  -16.1950 H         1 LBM    0.0462
     65 H133      -15.7210    2.4710  -17.1935 H         1 LBM    0.0462
     66 H142      -14.3463    5.1860  -15.1260 H         1 LBM    0.0435
     67 H143      -14.0617    3.7011  -14.1949 H         1 LBM    0.0435
     68 H152      -14.8452    5.4686  -12.7001 H         1 LBM    0.0485
     69 H153      -16.2712    5.7480  -13.7251 H         1 LBM    0.0485
     70 H162      -17.9466    3.8878  -13.9188 H         1 LBM    0.0485
     71 H163      -17.6850    2.4192  -12.9517 H         1 LBM    0.0485
     72 H172      -15.6635    1.9130  -14.2675 H         1 LBM    0.0435
     73 H173      -17.0990    2.0395  -15.3094 H         1 LBM    0.0435
     74 H19       -17.5891    2.1832  -11.1827 H         1 LBM    0.1560
     75 H22       -16.5491    6.3281   -8.7434 H         1 LBM    0.1440
     76 H23       -15.8781    6.0921  -11.0835 H         1 LBM    0.1430
     77 H26       -14.8229    4.3044   -4.1437 H         1 LBM    0.1900
     78 H29       -18.3802    0.8854   -3.7721 H         1 LBM    0.1530
     79 H312      -17.7950   -0.7667   -2.5251 H         1 LBM    0.0552
     80 H313      -17.0863   -1.5423   -3.9608 H         1 LBM    0.0552
     81 H24       -15.0106    6.4852  -19.7712 H         1 LBM    0.0432
     82 H25       -14.3961    4.8614  -20.1439 H         1 LBM    0.0432
     83 H32       -15.3803    5.8933  -17.4605 H         1 LBM    0.0572
     84 H33       -16.1233    4.6353  -18.4774 H         1 LBM    0.0572
     85 H30       -18.9551    3.2062   -4.3697 H         1 LBM    0.1800
     86 H321      -16.3339   -1.8819   -1.0565 H         1 LBM    0.0627
     87 H332      -17.0553   -3.8469   -3.2528 H         1 LBM    0.0567
     88 H333      -18.0827   -3.3583   -1.8847 H         1 LBM    0.0567
     89 H342      -16.4403   -4.2645   -0.3098 H         1 LBM    0.0517
     90 H343      -16.9749   -5.5150   -1.4532 H         1 LBM    0.0517
     91 H352      -13.2578   -3.8141   -1.7960 H         1 LBM    0.0517
     92 H353      -14.3611   -3.3175   -0.4941 H         1 LBM    0.0517
     93 H362      -14.2315   -1.5994   -2.2306 H         1 LBM    0.0567
     94 H363      -14.7294   -2.7853   -3.4588 H         1 LBM    0.0567
     95 H38       -19.3560   -0.0698   -7.9091 H         1 LBM    0.0451
     96 H41       -15.8645    2.3900   -7.9971 H         1 LBM    0.1580
     97 H42       -13.5112    0.9903   -6.5714 H         1 LBM    0.1640
     98 H43       -13.4016   -1.4350   -5.5769 H         1 LBM    0.1720
     99 H62       -11.8790    4.3564  -19.5029 H         1 LBM    0.0532
    100 H63       -11.3487    5.2057  -18.0416 H         1 LBM    0.0532
    101 H8        -11.5953    3.6724  -15.4561 H         1 LBM    0.1405
    102 H9        -10.1952    1.7999  -14.7238 H         1 LBM    0.1480
    103 HN2       -16.5409    6.1301   -6.9155 H         1 LBM    0.3395
    104 HN3       -14.9653   -0.1978   -2.8728 H         1 LBM    0.4758
    105 HN6       -15.7543   -2.5157   -5.7935 H         1 LBM    0.3127
    106 H441      -12.0677    7.2445  -17.4868 H         1 LBM    0.0355
    107 H442      -13.7262    6.7310  -17.0951 H         1 LBM    0.0355
    108 H443      -13.4547    8.0564  -18.2519 H         1 LBM    0.0355
    109 H1        -12.9349    6.4753  -21.1463 H         1 LBM    0.0355
    110 H2        -12.3787    7.8265  -20.1302 H         1 LBM    0.0355
    111 H3        -11.3501    6.3892  -20.3405 H         1 LBM    0.0355
@<TRIPOS>BOND
     1    1    2 ar
     2    1   22 ar
     3    2   45 ar
     4    3   18 1
     5    3   37 1
     6    4    5 1
     7    4   18 1
     8    5   48 1
     9    6    7 1
    10    6   48 1
    11    7   18 1
    12    8    9 ar
    13    8   23 ar
    14    9   25 ar
    15    9   59 1
    16   10   11 ar
    17   10   25 ar
    18   11   23 ar
    19   12   20 2
    20   12   25 1
    21   12   49 am
    22   13   14 ar
    23   13   28 ar
    24   13   60 1
    25   14   26 ar
    26   15   16 ar
    27   15   26 ar
    28   15   50 1
    29   16   28 ar
    30   17   29 1
    31   17   50 1
    32   19   21 1
    33   21   24 1
    34   21   42 1
    35   21   44 1
    36   22   47 ar
    37   22   61 1
    38   23   48 1
    39   24   27 1
    40   26   51 1
    41   27   37 1
    42   29   30 1
    43   29   33 1
    44   30   31 1
    45   31   56 1
    46   32   33 1
    47   32   56 1
    48   34   35 ar
    49   34   39 ar
    50   34   59 1
    51   35   52 ar
    52   36   38 ar
    53   36   52 ar
    54   36   53 ar
    55   37   43 2
    56   38   39 ar
    57   38   40 ar
    58   40   41 ar
    59   41   53 ar
    60   43   44 1
    61   43   45 1
    62   45   46 ar
    63   46   47 ar
    64   49   60 1
    65   51   57 2
    66   51   58 2
    67   54   60 2
    68   55   60 2
    69   62    1 1
    70   63    2 1
    71   64    3 1
    72   65    3 1
    73   66    4 1
    74   67    4 1
    75   68    5 1
    76   69    5 1
    77   70    6 1
    78   71    6 1
    79   72    7 1
    80   73    7 1
    81   74    8 1
    82   75   10 1
    83   76   11 1
    84   77   14 1
    85   78   16 1
    86   79   17 1
    87   80   17 1
    88   81   24 1
    89   82   24 1
    90   83   27 1
    91   84   27 1
    92   85   28 1
    93   86   29 1
    94   87   30 1
    95   88   30 1
    96   89   31 1
    97   90   31 1
    98   91   32 1
    99   92   32 1
   100   93   33 1
   101   94   33 1
   102   95   35 1
   103   96   39 1
   104   97   40 1
   105   98   41 1
   106   99   44 1
   107  100   44 1
   108  101   46 1
   109  102   47 1
   110  103   49 1
   111  104   50 1
   112  105   53 1
   113  106   42 1
   114  107   42 1
   115  108   42 1
   116  109   19 1
   117  110   19 1
   118  111   19 1
@<TRIPOS>SUBSTRUCTURE
     1 LBM     1 RESIDUE           4 A     LBM     0 ROOT
