MODEL 1
REMARK VINA RESULT:      -6.5      0.000      0.000
REMARK  Name = min_compound974.pdb
REMARK  3 active torsions:
REMARK  status: ('A' for Active; 'I' for Inactive)
REMARK    1  A    between atoms: _10  and  _18
REMARK    2  A    between atoms: _12  and  _15
REMARK    3  A    between atoms: _15  and  _17
REMARK                            x       y       z     vdW  Elec       q    Type
REMARK                         _______ _______ _______ _____ _____    ______ ____
ROOT
ATOM      1  C   UNL     1     -12.201   1.288 -16.497  0.00  0.00    -0.010 A 
ATOM      2  C   UNL     1     -10.895   1.819 -16.475  0.00  0.00    +0.066 A 
ATOM      3  C   UNL     1      -9.791   0.948 -16.432  0.00  0.00    +0.015 A 
ATOM      4  C   UNL     1      -9.976  -0.435 -16.400  0.00  0.00    +0.001 A 
ATOM      5  C   UNL     1     -11.263  -0.962 -16.410  0.00  0.00    +0.001 A 
ATOM      6  C   UNL     1     -12.367  -0.107 -16.458  0.00  0.00    +0.009 A 
ENDROOT
BRANCH   1  12
ATOM      7  H   UNL     1     -16.347   4.544 -18.886  0.00  0.00    +0.156 HD
ATOM      8  N   UNL     1     -15.551   3.937 -18.770  0.00  0.00    -0.270 N 
ATOM      9  C   UNL     1     -14.764   3.574 -19.820  0.00  0.00    +0.118 C 
ATOM     10  S   UNL     1     -13.510   2.485 -19.272  0.00  0.00    -0.061 S 
ATOM     11  C   UNL     1     -14.012   2.611 -17.624  0.00  0.00    +0.077 C 
ATOM     12  C   UNL     1     -13.432   2.092 -16.535  0.00  0.00    +0.029 C 
ATOM     13  S   UNL     1     -15.003   4.101 -21.371  0.00  0.00    -0.027 S 
ATOM     14  C   UNL     1     -15.239   3.446 -17.533  0.00  0.00    +0.256 C 
ATOM     15  O   UNL     1     -15.885   3.655 -16.520  0.00  0.00    -0.269 OA
ENDBRANCH   1  12
BRANCH   2  16
ATOM     16  C   UNL     1     -10.651   3.286 -16.450  0.00  0.00    +0.337 C 
ATOM     17  O   UNL     1     -10.684   4.056 -17.391  0.00  0.00    -0.245 OA
BRANCH  16  18
ATOM     18  O   UNL     1     -10.333   3.721 -15.215  0.00  0.00    -0.477 OA
ATOM     19  H   UNL     1      -9.364   3.586 -15.159  0.00  0.00    +0.295 HD
ENDBRANCH  16  18
ENDBRANCH   2  16
TORSDOF 3
ENDMDL
MODEL 2
REMARK VINA RESULT:      -6.2      1.930      2.217
REMARK  Name = min_compound974.pdb
REMARK  3 active torsions:
REMARK  status: ('A' for Active; 'I' for Inactive)
REMARK    1  A    between atoms: _10  and  _18
REMARK    2  A    between atoms: _12  and  _15
REMARK    3  A    between atoms: _15  and  _17
REMARK                            x       y       z     vdW  Elec       q    Type
REMARK                         _______ _______ _______ _____ _____    ______ ____
ROOT
ATOM      1  C   UNL     1     -11.891   1.336 -17.143  0.00  0.00    -0.010 A 
ATOM      2  C   UNL     1     -10.794   1.871 -16.438  0.00  0.00    +0.066 A 
ATOM      3  C   UNL     1      -9.960   1.015 -15.695  0.00  0.00    +0.015 A 
ATOM      4  C   UNL     1     -10.215  -0.356 -15.641  0.00  0.00    +0.001 A 
ATOM      5  C   UNL     1     -11.303  -0.886 -16.326  0.00  0.00    +0.001 A 
ATOM      6  C   UNL     1     -12.134  -0.046 -17.071  0.00  0.00    +0.009 A 
ENDROOT
BRANCH   1  12
ATOM      7  H   UNL     1     -16.774   4.226 -18.282  0.00  0.00    +0.156 HD
ATOM      8  N   UNL     1     -16.043   3.732 -17.795  0.00  0.00    -0.270 N 
ATOM      9  C   UNL     1     -16.161   3.379 -16.486  0.00  0.00    +0.118 C 
ATOM     10  S   UNL     1     -14.698   2.580 -15.954  0.00  0.00    -0.061 S 
ATOM     11  C   UNL     1     -13.992   2.654 -17.528  0.00  0.00    +0.077 C 
ATOM     12  C   UNL     1     -12.836   2.126 -17.947  0.00  0.00    +0.029 C 
ATOM     13  S   UNL     1     -17.503   3.689 -15.569  0.00  0.00    -0.027 S 
ATOM     14  C   UNL     1     -14.888   3.403 -18.448  0.00  0.00    +0.256 C 
ATOM     15  O   UNL     1     -14.635   3.698 -19.605  0.00  0.00    -0.269 OA
ENDBRANCH   1  12
BRANCH   2  16
ATOM     16  C   UNL     1     -10.517   3.332 -16.419  0.00  0.00    +0.337 C 
ATOM     17  O   UNL     1     -10.381   4.070 -17.377  0.00  0.00    -0.245 OA
BRANCH  16  18
ATOM     18  O   UNL     1     -10.385   3.803 -15.163  0.00  0.00    -0.477 OA
ATOM     19  H   UNL     1     -10.525   4.768 -15.257  0.00  0.00    +0.295 HD
ENDBRANCH  16  18
ENDBRANCH   2  16
TORSDOF 3
ENDMDL
MODEL 3
REMARK VINA RESULT:      -6.0     11.393     12.024
REMARK  Name = min_compound974.pdb
REMARK  3 active torsions:
REMARK  status: ('A' for Active; 'I' for Inactive)
REMARK    1  A    between atoms: _10  and  _18
REMARK    2  A    between atoms: _12  and  _15
REMARK    3  A    between atoms: _15  and  _17
REMARK                            x       y       z     vdW  Elec       q    Type
REMARK                         _______ _______ _______ _____ _____    ______ ____
ROOT
ATOM      1  C   UNL     1     -15.800   1.156  -4.989  0.00  0.00    -0.010 A 
ATOM      2  C   UNL     1     -14.725   0.247  -4.917  0.00  0.00    +0.066 A 
ATOM      3  C   UNL     1     -13.563   0.599  -4.206  0.00  0.00    +0.015 A 
ATOM      4  C   UNL     1     -13.460   1.843  -3.582  0.00  0.00    +0.001 A 
ATOM      5  C   UNL     1     -14.514   2.746  -3.660  0.00  0.00    +0.001 A 
ATOM      6  C   UNL     1     -15.675   2.406  -4.358  0.00  0.00    +0.009 A 
ENDROOT
BRANCH   1  12
ATOM      7  H   UNL     1     -19.675   1.671  -9.257  0.00  0.00    +0.156 HD
ATOM      8  N   UNL     1     -18.824   1.736  -8.720  0.00  0.00    -0.270 N 
ATOM      9  C   UNL     1     -17.759   2.467  -9.146  0.00  0.00    +0.118 C 
ATOM     10  S   UNL     1     -16.445   2.323  -8.000  0.00  0.00    -0.061 S 
ATOM     11  C   UNL     1     -17.386   1.355  -6.924  0.00  0.00    +0.077 C 
ATOM     12  C   UNL     1     -17.061   0.908  -5.705  0.00  0.00    +0.029 C 
ATOM     13  S   UNL     1     -17.748   3.340 -10.553  0.00  0.00    -0.027 S 
ATOM     14  C   UNL     1     -18.714   1.072  -7.531  0.00  0.00    +0.256 C 
ATOM     15  O   UNL     1     -19.574   0.347  -7.057  0.00  0.00    -0.269 OA
ENDBRANCH   1  12
BRANCH   2  16
ATOM     16  C   UNL     1     -14.766  -1.066  -5.615  0.00  0.00    +0.337 C 
ATOM     17  O   UNL     1     -14.998  -1.269  -6.792  0.00  0.00    -0.245 OA
BRANCH  16  18
ATOM     18  O   UNL     1     -14.542  -2.092  -4.770  0.00  0.00    -0.477 OA
ATOM     19  H   UNL     1     -14.715  -1.710  -3.885  0.00  0.00    +0.295 HD
ENDBRANCH  16  18
ENDBRANCH   2  16
TORSDOF 3
ENDMDL
MODEL 4
REMARK VINA RESULT:      -5.9      3.066      3.872
REMARK  Name = min_compound974.pdb
REMARK  3 active torsions:
REMARK  status: ('A' for Active; 'I' for Inactive)
REMARK    1  A    between atoms: _10  and  _18
REMARK    2  A    between atoms: _12  and  _15
REMARK    3  A    between atoms: _15  and  _17
REMARK                            x       y       z     vdW  Elec       q    Type
REMARK                         _______ _______ _______ _____ _____    ______ ____
ROOT
ATOM      1  C   UNL     1     -11.605   3.005 -17.192  0.00  0.00    -0.010 A 
ATOM      2  C   UNL     1     -12.287   1.949 -17.831  0.00  0.00    +0.066 A 
ATOM      3  C   UNL     1     -12.066   0.624 -17.411  0.00  0.00    +0.015 A 
ATOM      4  C   UNL     1     -11.172   0.345 -16.377  0.00  0.00    +0.001 A 
ATOM      5  C   UNL     1     -10.490   1.383 -15.752  0.00  0.00    +0.001 A 
ATOM      6  C   UNL     1     -10.704   2.702 -16.157  0.00  0.00    +0.009 A 
ENDROOT
BRANCH   1  12
ATOM      7  H   UNL     1     -14.179   8.182 -17.458  0.00  0.00    +0.156 HD
ATOM      8  N   UNL     1     -13.969   7.226 -17.217  0.00  0.00    -0.270 N 
ATOM      9  C   UNL     1     -14.819   6.467 -16.473  0.00  0.00    +0.118 C 
ATOM     10  S   UNL     1     -14.124   4.884 -16.208  0.00  0.00    -0.061 S 
ATOM     11  C   UNL     1     -12.743   5.242 -17.181  0.00  0.00    +0.077 C 
ATOM     12  C   UNL     1     -11.745   4.426 -17.543  0.00  0.00    +0.029 C 
ATOM     13  S   UNL     1     -16.280   7.008 -15.913  0.00  0.00    -0.027 S 
ATOM     14  C   UNL     1     -12.798   6.658 -17.634  0.00  0.00    +0.256 C 
ATOM     15  O   UNL     1     -11.930   7.237 -18.266  0.00  0.00    -0.269 OA
ENDBRANCH   1  12
BRANCH   2  16
ATOM     16  C   UNL     1     -13.205   2.193 -18.976  0.00  0.00    +0.337 C 
ATOM     17  O   UNL     1     -14.260   2.799 -18.960  0.00  0.00    -0.245 OA
BRANCH  16  18
ATOM     18  O   UNL     1     -12.758   1.618 -20.110  0.00  0.00    -0.477 OA
ATOM     19  H   UNL     1     -13.326   0.827 -20.213  0.00  0.00    +0.295 HD
ENDBRANCH  16  18
ENDBRANCH   2  16
TORSDOF 3
ENDMDL
MODEL 5
REMARK VINA RESULT:      -5.9     14.414     15.363
REMARK  Name = min_compound974.pdb
REMARK  3 active torsions:
REMARK  status: ('A' for Active; 'I' for Inactive)
REMARK    1  A    between atoms: _10  and  _18
REMARK    2  A    between atoms: _12  and  _15
REMARK    3  A    between atoms: _15  and  _17
REMARK                            x       y       z     vdW  Elec       q    Type
REMARK                         _______ _______ _______ _____ _____    ______ ____
ROOT
ATOM      1  C   UNL     1     -14.461  -0.593  -3.808  0.00  0.00    -0.010 A 
ATOM      2  C   UNL     1     -14.814  -0.117  -5.087  0.00  0.00    +0.066 A 
ATOM      3  C   UNL     1     -14.460   1.191  -5.464  0.00  0.00    +0.015 A 
ATOM      4  C   UNL     1     -13.773   2.025  -4.581  0.00  0.00    +0.001 A 
ATOM      5  C   UNL     1     -13.433   1.563  -3.315  0.00  0.00    +0.001 A 
ATOM      6  C   UNL     1     -13.775   0.265  -2.931  0.00  0.00    +0.009 A 
ENDROOT
BRANCH   1  12
ATOM      7  H   UNL     1     -17.560  -4.630  -1.052  0.00  0.00    +0.156 HD
ATOM      8  N   UNL     1     -17.283  -3.763  -1.486  0.00  0.00    -0.270 N 
ATOM      9  C   UNL     1     -18.059  -2.647  -1.426  0.00  0.00    +0.118 C 
ATOM     10  S   UNL     1     -17.299  -1.348  -2.319  0.00  0.00    -0.061 S 
ATOM     11  C   UNL     1     -15.908  -2.305  -2.679  0.00  0.00    +0.077 C 
ATOM     12  C   UNL     1     -14.779  -1.934  -3.296  0.00  0.00    +0.029 C 
ATOM     13  S   UNL     1     -19.506  -2.577  -0.624  0.00  0.00    -0.027 S 
ATOM     14  C   UNL     1     -16.100  -3.688  -2.166  0.00  0.00    +0.256 C 
ATOM     15  O   UNL     1     -15.334  -4.623  -2.335  0.00  0.00    -0.269 OA
ENDBRANCH   1  12
BRANCH   2  16
ATOM     16  C   UNL     1     -15.596  -0.949  -6.040  0.00  0.00    +0.337 C 
ATOM     17  O   UNL     1     -16.772  -0.832  -6.330  0.00  0.00    -0.245 OA
BRANCH  16  18
ATOM     18  O   UNL     1     -14.851  -1.939  -6.572  0.00  0.00    -0.477 OA
ATOM     19  H   UNL     1     -13.945  -1.749  -6.253  0.00  0.00    +0.295 HD
ENDBRANCH  16  18
ENDBRANCH   2  16
TORSDOF 3
ENDMDL
MODEL 6
REMARK VINA RESULT:      -5.8     14.419     15.237
REMARK  Name = min_compound974.pdb
REMARK  3 active torsions:
REMARK  status: ('A' for Active; 'I' for Inactive)
REMARK    1  A    between atoms: _10  and  _18
REMARK    2  A    between atoms: _12  and  _15
REMARK    3  A    between atoms: _15  and  _17
REMARK                            x       y       z     vdW  Elec       q    Type
REMARK                         _______ _______ _______ _____ _____    ______ ____
ROOT
ATOM      1  C   UNL     1     -16.024   0.487  -4.198  0.00  0.00    -0.010 A 
ATOM      2  C   UNL     1     -14.770  -0.117  -3.968  0.00  0.00    +0.066 A 
ATOM      3  C   UNL     1     -13.660   0.685  -3.650  0.00  0.00    +0.015 A 
ATOM      4  C   UNL     1     -13.784   2.073  -3.571  0.00  0.00    +0.001 A 
ATOM      5  C   UNL     1     -15.015   2.673  -3.808  0.00  0.00    +0.001 A 
ATOM      6  C   UNL     1     -16.126   1.886  -4.119  0.00  0.00    +0.009 A 
ENDROOT
BRANCH   1  12
ATOM      7  H   UNL     1     -20.657  -2.855  -3.269  0.00  0.00    +0.156 HD
ATOM      8  N   UNL     1     -19.840  -2.284  -3.119  0.00  0.00    -0.270 N 
ATOM      9  C   UNL     1     -19.284  -2.133  -1.886  0.00  0.00    +0.118 C 
ATOM     10  S   UNL     1     -17.916  -1.046  -1.982  0.00  0.00    -0.061 S 
ATOM     11  C   UNL     1     -18.063  -0.888  -3.695  0.00  0.00    +0.077 C 
ATOM     12  C   UNL     1     -17.254  -0.242  -4.544  0.00  0.00    +0.029 C 
ATOM     13  S   UNL     1     -19.857  -2.878  -0.524  0.00  0.00    -0.027 S 
ATOM     14  C   UNL     1     -19.263  -1.627  -4.170  0.00  0.00    +0.256 C 
ATOM     15  O   UNL     1     -19.685  -1.640  -5.314  0.00  0.00    -0.269 OA
ENDBRANCH   1  12
BRANCH   2  16
ATOM     16  C   UNL     1     -14.578  -1.586  -4.098  0.00  0.00    +0.337 C 
ATOM     17  O   UNL     1     -14.556  -2.410  -3.203  0.00  0.00    -0.245 OA
BRANCH  16  18
ATOM     18  O   UNL     1     -14.381  -1.956  -5.379  0.00  0.00    -0.477 OA
ATOM     19  H   UNL     1     -14.704  -2.880  -5.410  0.00  0.00    +0.295 HD
ENDBRANCH  16  18
ENDBRANCH   2  16
TORSDOF 3
ENDMDL
MODEL 7
REMARK VINA RESULT:      -5.7      2.757      3.328
REMARK  Name = min_compound974.pdb
REMARK  3 active torsions:
REMARK  status: ('A' for Active; 'I' for Inactive)
REMARK    1  A    between atoms: _10  and  _18
REMARK    2  A    between atoms: _12  and  _15
REMARK    3  A    between atoms: _15  and  _17
REMARK                            x       y       z     vdW  Elec       q    Type
REMARK                         _______ _______ _______ _____ _____    ______ ____
ROOT
ATOM      1  C   UNL     1     -11.347   0.640 -17.678  0.00  0.00    -0.010 A 
ATOM      2  C   UNL     1     -11.716  -0.138 -16.561  0.00  0.00    +0.066 A 
ATOM      3  C   UNL     1     -10.721  -0.789 -15.809  0.00  0.00    +0.015 A 
ATOM      4  C   UNL     1      -9.376  -0.681 -16.163  0.00  0.00    +0.001 A 
ATOM      5  C   UNL     1      -9.010   0.076 -17.270  0.00  0.00    +0.001 A 
ATOM      6  C   UNL     1      -9.988   0.731 -18.022  0.00  0.00    +0.009 A 
ENDROOT
BRANCH   1  12
ATOM      7  H   UNL     1     -14.470   5.142 -19.544  0.00  0.00    +0.156 HD
ATOM      8  N   UNL     1     -13.799   4.582 -19.041  0.00  0.00    -0.270 N 
ATOM      9  C   UNL     1     -13.064   5.087 -18.014  0.00  0.00    +0.118 C 
ATOM     10  S   UNL     1     -11.975   3.861 -17.404  0.00  0.00    -0.061 S 
ATOM     11  C   UNL     1     -12.595   2.664 -18.483  0.00  0.00    +0.077 C 
ATOM     12  C   UNL     1     -12.292   1.362 -18.545  0.00  0.00    +0.029 C 
ATOM     13  S   UNL     1     -13.205   6.642 -17.463  0.00  0.00    -0.027 S 
ATOM     14  C   UNL     1     -13.602   3.275 -19.391  0.00  0.00    +0.256 C 
ATOM     15  O   UNL     1     -14.159   2.712 -20.319  0.00  0.00    -0.269 OA
ENDBRANCH   1  12
BRANCH   2  16
ATOM     16  C   UNL     1     -13.141  -0.329 -16.180  0.00  0.00    +0.337 C 
ATOM     17  O   UNL     1     -13.998   0.529 -16.072  0.00  0.00    -0.245 OA
BRANCH  16  18
ATOM     18  O   UNL     1     -13.421  -1.619 -15.911  0.00  0.00    -0.477 OA
ATOM     19  H   UNL     1     -13.159  -2.093 -16.727  0.00  0.00    +0.295 HD
ENDBRANCH  16  18
ENDBRANCH   2  16
TORSDOF 3
ENDMDL
MODEL 8
REMARK VINA RESULT:      -5.7     12.650     13.318
REMARK  Name = min_compound974.pdb
REMARK  3 active torsions:
REMARK  status: ('A' for Active; 'I' for Inactive)
REMARK    1  A    between atoms: _10  and  _18
REMARK    2  A    between atoms: _12  and  _15
REMARK    3  A    between atoms: _15  and  _17
REMARK                            x       y       z     vdW  Elec       q    Type
REMARK                         _______ _______ _______ _____ _____    ______ ____
ROOT
ATOM      1  C   UNL     1     -15.762   1.713  -3.867  0.00  0.00    -0.010 A 
ATOM      2  C   UNL     1     -15.429   0.388  -3.518  0.00  0.00    +0.066 A 
ATOM      3  C   UNL     1     -14.101   0.071  -3.180  0.00  0.00    +0.015 A 
ATOM      4  C   UNL     1     -13.109   1.052  -3.197  0.00  0.00    +0.001 A 
ATOM      5  C   UNL     1     -13.432   2.357  -3.551  0.00  0.00    +0.001 A 
ATOM      6  C   UNL     1     -14.748   2.685  -3.884  0.00  0.00    +0.009 A 
ENDROOT
BRANCH   1  12
ATOM      7  H   UNL     1     -19.983   3.428  -7.437  0.00  0.00    +0.156 HD
ATOM      8  N   UNL     1     -19.110   3.065  -7.088  0.00  0.00    -0.270 N 
ATOM      9  C   UNL     1     -18.074   2.761  -7.916  0.00  0.00    +0.118 C 
ATOM     10  S   UNL     1     -16.740   2.117  -6.986  0.00  0.00    -0.061 S 
ATOM     11  C   UNL     1     -17.567   2.354  -5.489  0.00  0.00    +0.077 C 
ATOM     12  C   UNL     1     -17.110   2.166  -4.245  0.00  0.00    +0.029 C 
ATOM     13  S   UNL     1     -18.118   2.976  -9.557  0.00  0.00    -0.027 S 
ATOM     14  C   UNL     1     -18.943   2.857  -5.747  0.00  0.00    +0.256 C 
ATOM     15  O   UNL     1     -19.803   3.044  -4.903  0.00  0.00    -0.269 OA
ENDBRANCH   1  12
BRANCH   2  16
ATOM     16  C   UNL     1     -16.441  -0.703  -3.543  0.00  0.00    +0.337 C 
ATOM     17  O   UNL     1     -17.191  -1.034  -2.644  0.00  0.00    -0.245 OA
BRANCH  16  18
ATOM     18  O   UNL     1     -16.436  -1.366  -4.716  0.00  0.00    -0.477 OA
ATOM     19  H   UNL     1     -15.913  -0.790  -5.311  0.00  0.00    +0.295 HD
ENDBRANCH  16  18
ENDBRANCH   2  16
TORSDOF 3
ENDMDL
MODEL 9
REMARK VINA RESULT:      -5.7     15.693     16.922
REMARK  Name = min_compound974.pdb
REMARK  3 active torsions:
REMARK  status: ('A' for Active; 'I' for Inactive)
REMARK    1  A    between atoms: _10  and  _18
REMARK    2  A    between atoms: _12  and  _15
REMARK    3  A    between atoms: _15  and  _17
REMARK                            x       y       z     vdW  Elec       q    Type
REMARK                         _______ _______ _______ _____ _____    ______ ____
ROOT
ATOM      1  C   UNL     1     -15.458  -1.618  -2.005  0.00  0.00    -0.010 A 
ATOM      2  C   UNL     1     -15.600  -0.894  -3.207  0.00  0.00    +0.066 A 
ATOM      3  C   UNL     1     -16.785  -0.177  -3.451  0.00  0.00    +0.015 A 
ATOM      4  C   UNL     1     -17.825  -0.183  -2.521  0.00  0.00    +0.001 A 
ATOM      5  C   UNL     1     -17.694  -0.905  -1.340  0.00  0.00    +0.001 A 
ATOM      6  C   UNL     1     -16.520  -1.617  -1.084  0.00  0.00    +0.009 A 
ENDROOT
BRANCH   1  12
ATOM      7  H   UNL     1     -12.396  -6.413  -0.940  0.00  0.00    +0.156 HD
ATOM      8  N   UNL     1     -13.134  -5.790  -1.230  0.00  0.00    -0.270 N 
ATOM      9  C   UNL     1     -14.346  -6.251  -1.643  0.00  0.00    +0.118 C 
ATOM     10  S   UNL     1     -15.364  -4.908  -2.112  0.00  0.00    -0.061 S 
ATOM     11  C   UNL     1     -14.172  -3.745  -1.655  0.00  0.00    +0.077 C 
ATOM     12  C   UNL     1     -14.275  -2.410  -1.639  0.00  0.00    +0.029 C 
ATOM     13  S   UNL     1     -14.749  -7.856  -1.690  0.00  0.00    -0.027 S 
ATOM     14  C   UNL     1     -12.930  -4.438  -1.221  0.00  0.00    +0.256 C 
ATOM     15  O   UNL     1     -11.880  -3.896  -0.918  0.00  0.00    -0.269 OA
ENDBRANCH   1  12
BRANCH   2  16
ATOM     16  C   UNL     1     -14.542  -0.905  -4.253  0.00  0.00    +0.337 C 
ATOM     17  O   UNL     1     -13.760  -0.012  -4.521  0.00  0.00    -0.245 OA
BRANCH  16  18
ATOM     18  O   UNL     1     -14.540  -2.056  -4.953  0.00  0.00    -0.477 OA
ATOM     19  H   UNL     1     -14.021  -1.842  -5.757  0.00  0.00    +0.295 HD
ENDBRANCH  16  18
ENDBRANCH   2  16
TORSDOF 3
ENDMDL
