MODEL 1
REMARK VINA RESULT:      -5.2      0.000      0.000
REMARK  Name = min_compound95.pdb
REMARK  4 active torsions:
REMARK  status: ('A' for Active; 'I' for Inactive)
REMARK    1  A    between atoms: _4  and  _8
REMARK    2  A    between atoms: _9  and  _10
REMARK    3  A    between atoms: _10  and  _11
REMARK    4  A    between atoms: _11  and  _12
REMARK                            x       y       z     vdW  Elec       q    Type
REMARK                         _______ _______ _______ _____ _____    ______ ____
ROOT
ATOM      1 CL   UNL     1     -14.075   1.108  -7.081  0.00  0.00    -0.060 Cl
ATOM      2  C   UNL     1     -14.150   0.464  -5.484  0.00  0.00    +0.155 A 
ATOM      3  C   UNL     1     -14.474  -0.868  -5.262  0.00  0.00    +0.102 A 
ATOM      4  C   UNL     1     -14.568  -1.207  -3.908  0.00  0.00    +0.144 A 
ATOM      5  N   UNL     1     -14.994  -2.527  -3.599  0.00  0.00    -0.325 N 
ATOM      6  H   UNL     1     -15.871  -2.669  -4.100  0.00  0.00    +0.148 HD
ATOM      7  N   UNL     1     -14.242  -0.351  -2.922  0.00  0.00    -0.219 NA
ATOM      8  C   UNL     1     -13.886   0.889  -3.287  0.00  0.00    +0.225 A 
ATOM      9  N   UNL     1     -13.833   1.360  -4.534  0.00  0.00    -0.222 NA
ENDROOT
BRANCH   3  10
ATOM     10  N   UNL     1     -14.910  -1.766  -6.269  0.00  0.00    -0.353 N 
ATOM     11  H   UNL     1     -15.051  -2.707  -5.903  0.00  0.00    +0.143 HD
ATOM     12  H   UNL     1     -15.751  -1.401  -6.719  0.00  0.00    +0.143 HD
ENDBRANCH   3  10
BRANCH   5  13
ATOM     13  C   UNL     1     -15.107  -2.801  -2.168  0.00  0.00    +0.130 C 
BRANCH  13  14
ATOM     14  C   UNL     1     -13.866  -3.548  -1.667  0.00  0.00    +0.174 C 
BRANCH  14  15
ATOM     15  O   UNL     1     -12.930  -2.660  -1.064  0.00  0.00    -0.393 OA
ATOM     16  H   UNL     1     -12.585  -3.088  -0.262  0.00  0.00    +0.209 HD
ENDBRANCH  14  15
ENDBRANCH  13  14
ENDBRANCH   5  13
TORSDOF 4
ENDMDL
MODEL 2
REMARK VINA RESULT:      -4.7     12.909     13.870
REMARK  Name = min_compound95.pdb
REMARK  4 active torsions:
REMARK  status: ('A' for Active; 'I' for Inactive)
REMARK    1  A    between atoms: _4  and  _8
REMARK    2  A    between atoms: _9  and  _10
REMARK    3  A    between atoms: _10  and  _11
REMARK    4  A    between atoms: _11  and  _12
REMARK                            x       y       z     vdW  Elec       q    Type
REMARK                         _______ _______ _______ _____ _____    ______ ____
ROOT
ATOM      1 CL   UNL     1     -11.623   5.874 -17.368  0.00  0.00    -0.060 Cl
ATOM      2  C   UNL     1     -11.681   4.157 -17.214  0.00  0.00    +0.155 A 
ATOM      3  C   UNL     1     -10.958   3.502 -16.227  0.00  0.00    +0.102 A 
ATOM      4  C   UNL     1     -11.055   2.107 -16.290  0.00  0.00    +0.144 A 
ATOM      5  N   UNL     1     -10.263   1.361 -15.377  0.00  0.00    -0.325 N 
ATOM      6  H   UNL     1      -9.305   1.693 -15.491  0.00  0.00    +0.148 HD
ATOM      7  N   UNL     1     -11.880   1.476 -17.146  0.00  0.00    -0.219 NA
ATOM      8  C   UNL     1     -12.566   2.243 -18.004  0.00  0.00    +0.225 A 
ATOM      9  N   UNL     1     -12.505   3.571 -18.100  0.00  0.00    -0.222 NA
ENDROOT
BRANCH   3  10
ATOM     10  N   UNL     1     -10.013   4.127 -15.374  0.00  0.00    -0.353 N 
ATOM     11  H   UNL     1     -10.340   5.036 -15.049  0.00  0.00    +0.143 HD
ATOM     12  H   UNL     1      -9.781   3.505 -14.599  0.00  0.00    +0.143 HD
ENDBRANCH   3  10
BRANCH   5  13
ATOM     13  C   UNL     1     -10.382  -0.088 -15.523  0.00  0.00    +0.130 C 
BRANCH  13  14
ATOM     14  C   UNL     1      -9.306  -0.619 -16.478  0.00  0.00    +0.174 C 
BRANCH  14  15
ATOM     15  O   UNL     1      -9.844  -0.904 -17.765  0.00  0.00    -0.393 OA
ATOM     16  H   UNL     1     -10.639  -0.357 -17.884  0.00  0.00    +0.209 HD
ENDBRANCH  14  15
ENDBRANCH  13  14
ENDBRANCH   5  13
TORSDOF 4
ENDMDL
MODEL 3
REMARK VINA RESULT:      -4.7     13.515     15.104
REMARK  Name = min_compound95.pdb
REMARK  4 active torsions:
REMARK  status: ('A' for Active; 'I' for Inactive)
REMARK    1  A    between atoms: _4  and  _8
REMARK    2  A    between atoms: _9  and  _10
REMARK    3  A    between atoms: _10  and  _11
REMARK    4  A    between atoms: _11  and  _12
REMARK                            x       y       z     vdW  Elec       q    Type
REMARK                         _______ _______ _______ _____ _____    ______ ____
ROOT
ATOM      1 CL   UNL     1      -9.934   0.404 -15.233  0.00  0.00    -0.060 Cl
ATOM      2  C   UNL     1     -11.070   1.334 -16.135  0.00  0.00    +0.155 A 
ATOM      3  C   UNL     1     -11.526   0.904 -17.374  0.00  0.00    +0.102 A 
ATOM      4  C   UNL     1     -12.382   1.812 -18.006  0.00  0.00    +0.144 A 
ATOM      5  N   UNL     1     -12.812   1.490 -19.321  0.00  0.00    -0.325 N 
ATOM      6  H   UNL     1     -11.966   1.307 -19.862  0.00  0.00    +0.148 HD
ATOM      7  N   UNL     1     -12.822   2.933 -17.405  0.00  0.00    -0.219 NA
ATOM      8  C   UNL     1     -12.344   3.192 -16.179  0.00  0.00    +0.225 A 
ATOM      9  N   UNL     1     -11.466   2.451 -15.501  0.00  0.00    -0.222 NA
ENDROOT
BRANCH   3  10
ATOM     10  N   UNL     1     -11.014  -0.220 -18.072  0.00  0.00    -0.353 N 
ATOM     11  H   UNL     1     -11.727  -0.665 -18.649  0.00  0.00    +0.143 HD
ATOM     12  H   UNL     1     -10.196   0.054 -18.617  0.00  0.00    +0.143 HD
ENDBRANCH   3  10
BRANCH   5  13
ATOM     13  C   UNL     1     -13.671   2.499 -19.937  0.00  0.00    +0.130 C 
BRANCH  13  14
ATOM     14  C   UNL     1     -14.027   2.095 -21.373  0.00  0.00    +0.174 C 
BRANCH  14  15
ATOM     15  O   UNL     1     -13.246   0.988 -21.812  0.00  0.00    -0.393 OA
ATOM     16  H   UNL     1     -12.836   1.229 -22.660  0.00  0.00    +0.209 HD
ENDBRANCH  14  15
ENDBRANCH  13  14
ENDBRANCH   5  13
TORSDOF 4
ENDMDL
MODEL 4
REMARK VINA RESULT:      -4.7     13.117     13.959
REMARK  Name = min_compound95.pdb
REMARK  4 active torsions:
REMARK  status: ('A' for Active; 'I' for Inactive)
REMARK    1  A    between atoms: _4  and  _8
REMARK    2  A    between atoms: _9  and  _10
REMARK    3  A    between atoms: _10  and  _11
REMARK    4  A    between atoms: _11  and  _12
REMARK                            x       y       z     vdW  Elec       q    Type
REMARK                         _______ _______ _______ _____ _____    ______ ____
ROOT
ATOM      1 CL   UNL     1     -14.333   4.269 -19.489  0.00  0.00    -0.060 Cl
ATOM      2  C   UNL     1     -13.579   3.314 -18.269  0.00  0.00    +0.155 A 
ATOM      3  C   UNL     1     -12.886   2.155 -18.592  0.00  0.00    +0.102 A 
ATOM      4  C   UNL     1     -12.403   1.458 -17.478  0.00  0.00    +0.144 A 
ATOM      5  N   UNL     1     -11.771   0.209 -17.720  0.00  0.00    -0.325 N 
ATOM      6  H   UNL     1     -12.428  -0.342 -18.272  0.00  0.00    +0.148 HD
ATOM      7  N   UNL     1     -12.491   1.943 -16.226  0.00  0.00    -0.219 NA
ATOM      8  C   UNL     1     -13.135   3.108 -16.070  0.00  0.00    +0.225 A 
ATOM      9  N   UNL     1     -13.707   3.830 -17.034  0.00  0.00    -0.222 NA
ENDROOT
BRANCH   3  10
ATOM     10  N   UNL     1     -12.855   1.571 -19.884  0.00  0.00    -0.353 N 
ATOM     11  H   UNL     1     -12.953   2.271 -20.619  0.00  0.00    +0.143 HD
ATOM     12  H   UNL     1     -12.004   1.018 -19.994  0.00  0.00    +0.143 HD
ENDBRANCH   3  10
BRANCH   5  13
ATOM     13  C   UNL     1     -11.326  -0.482 -16.512  0.00  0.00    +0.130 C 
BRANCH  13  14
ATOM     14  C   UNL     1      -9.876  -0.107 -16.184  0.00  0.00    +0.174 C 
BRANCH  14  15
ATOM     15  O   UNL     1      -9.806   0.804 -15.092  0.00  0.00    -0.393 OA
ATOM     16  H   UNL     1     -10.411   1.542 -15.279  0.00  0.00    +0.209 HD
ENDBRANCH  14  15
ENDBRANCH  13  14
ENDBRANCH   5  13
TORSDOF 4
ENDMDL
MODEL 5
REMARK VINA RESULT:      -4.5     13.907     15.142
REMARK  Name = min_compound95.pdb
REMARK  4 active torsions:
REMARK  status: ('A' for Active; 'I' for Inactive)
REMARK    1  A    between atoms: _4  and  _8
REMARK    2  A    between atoms: _9  and  _10
REMARK    3  A    between atoms: _10  and  _11
REMARK    4  A    between atoms: _11  and  _12
REMARK                            x       y       z     vdW  Elec       q    Type
REMARK                         _______ _______ _______ _____ _____    ______ ____
ROOT
ATOM      1 CL   UNL     1      -9.996   0.603 -15.705  0.00  0.00    -0.060 Cl
ATOM      2  C   UNL     1     -10.991   1.613 -16.685  0.00  0.00    +0.155 A 
ATOM      3  C   UNL     1     -11.002   2.991 -16.515  0.00  0.00    +0.102 A 
ATOM      4  C   UNL     1     -11.921   3.653 -17.337  0.00  0.00    +0.144 A 
ATOM      5  N   UNL     1     -12.064   5.054 -17.150  0.00  0.00    -0.325 N 
ATOM      6  H   UNL     1     -12.255   5.193 -16.157  0.00  0.00    +0.148 HD
ATOM      7  N   UNL     1     -12.627   3.020 -18.292  0.00  0.00    -0.219 NA
ATOM      8  C   UNL     1     -12.470   1.692 -18.383  0.00  0.00    +0.225 A 
ATOM      9  N   UNL     1     -11.688   0.934 -17.613  0.00  0.00    -0.222 NA
ENDROOT
BRANCH   3  10
ATOM     10  N   UNL     1     -10.343   3.675 -15.462  0.00  0.00    -0.353 N 
ATOM     11  H   UNL     1      -9.774   3.045 -14.898  0.00  0.00    +0.143 HD
ATOM     12  H   UNL     1      -9.796   4.449 -15.840  0.00  0.00    +0.143 HD
ENDBRANCH   3  10
BRANCH   5  13
ATOM     13  C   UNL     1     -13.068   5.675 -18.012  0.00  0.00    +0.130 C 
BRANCH  13  14
ATOM     14  C   UNL     1     -12.819   7.184 -18.121  0.00  0.00    +0.174 C 
BRANCH  14  15
ATOM     15  O   UNL     1     -11.442   7.472 -18.341  0.00  0.00    -0.393 OA
ATOM     16  H   UNL     1     -11.132   6.909 -19.070  0.00  0.00    +0.209 HD
ENDBRANCH  14  15
ENDBRANCH  13  14
ENDBRANCH   5  13
TORSDOF 4
ENDMDL
MODEL 6
REMARK VINA RESULT:      -4.5     13.501     15.016
REMARK  Name = min_compound95.pdb
REMARK  4 active torsions:
REMARK  status: ('A' for Active; 'I' for Inactive)
REMARK    1  A    between atoms: _4  and  _8
REMARK    2  A    between atoms: _9  and  _10
REMARK    3  A    between atoms: _10  and  _11
REMARK    4  A    between atoms: _11  and  _12
REMARK                            x       y       z     vdW  Elec       q    Type
REMARK                         _______ _______ _______ _____ _____    ______ ____
ROOT
ATOM      1 CL   UNL     1     -10.820  -0.537 -17.105  0.00  0.00    -0.060 Cl
ATOM      2  C   UNL     1     -11.138   1.138 -16.844  0.00  0.00    +0.155 A 
ATOM      3  C   UNL     1     -11.920   1.866 -17.731  0.00  0.00    +0.102 A 
ATOM      4  C   UNL     1     -12.013   3.226 -17.414  0.00  0.00    +0.144 A 
ATOM      5  N   UNL     1     -12.713   4.057 -18.329  0.00  0.00    -0.325 N 
ATOM      6  H   UNL     1     -12.290   3.896 -19.243  0.00  0.00    +0.148 HD
ATOM      7  N   UNL     1     -11.501   3.743 -16.282  0.00  0.00    -0.219 NA
ATOM      8  C   UNL     1     -10.820   2.907 -15.486  0.00  0.00    +0.225 A 
ATOM      9  N   UNL     1     -10.592   1.612 -15.711  0.00  0.00    -0.222 NA
ENDROOT
BRANCH   3  10
ATOM     10  N   UNL     1     -12.394   1.374 -18.973  0.00  0.00    -0.353 N 
ATOM     11  H   UNL     1     -12.984   2.054 -19.450  0.00  0.00    +0.143 HD
ATOM     12  H   UNL     1     -11.606   1.078 -19.552  0.00  0.00    +0.143 HD
ENDBRANCH   3  10
BRANCH   5  13
ATOM     13  C   UNL     1     -12.738   5.470 -17.957  0.00  0.00    +0.130 C 
BRANCH  13  14
ATOM     14  C   UNL     1     -11.946   6.304 -18.971  0.00  0.00    +0.174 C 
BRANCH  14  15
ATOM     15  O   UNL     1     -11.584   7.572 -18.435  0.00  0.00    -0.393 OA
ATOM     16  H   UNL     1     -11.812   8.251 -19.093  0.00  0.00    +0.209 HD
ENDBRANCH  14  15
ENDBRANCH  13  14
ENDBRANCH   5  13
TORSDOF 4
ENDMDL
MODEL 7
REMARK VINA RESULT:      -4.3      2.382      2.466
REMARK  Name = min_compound95.pdb
REMARK  4 active torsions:
REMARK  status: ('A' for Active; 'I' for Inactive)
REMARK    1  A    between atoms: _4  and  _8
REMARK    2  A    between atoms: _9  and  _10
REMARK    3  A    between atoms: _10  and  _11
REMARK    4  A    between atoms: _11  and  _12
REMARK                            x       y       z     vdW  Elec       q    Type
REMARK                         _______ _______ _______ _____ _____    ______ ____
ROOT
ATOM      1 CL   UNL     1     -14.113   1.177  -7.109  0.00  0.00    -0.060 Cl
ATOM      2  C   UNL     1     -14.906   0.730  -5.644  0.00  0.00    +0.155 A 
ATOM      3  C   UNL     1     -14.976  -0.598  -5.243  0.00  0.00    +0.102 A 
ATOM      4  C   UNL     1     -15.721  -0.795  -4.075  0.00  0.00    +0.144 A 
ATOM      5  N   UNL     1     -15.923  -2.137  -3.656  0.00  0.00    -0.325 N 
ATOM      6  H   UNL     1     -16.313  -2.633  -4.458  0.00  0.00    +0.148 HD
ATOM      7  N   UNL     1     -16.206   0.225  -3.344  0.00  0.00    -0.219 NA
ATOM      8  C   UNL     1     -16.010   1.462  -3.822  0.00  0.00    +0.225 A 
ATOM      9  N   UNL     1     -15.389   1.780  -4.959  0.00  0.00    -0.222 NA
ENDROOT
BRANCH   3  10
ATOM     10  N   UNL     1     -14.557  -1.698  -6.034  0.00  0.00    -0.353 N 
ATOM     11  H   UNL     1     -13.633  -1.547  -6.437  0.00  0.00    +0.143 HD
ATOM     12  H   UNL     1     -14.597  -2.556  -5.482  0.00  0.00    +0.143 HD
ENDBRANCH   3  10
BRANCH   5  13
ATOM     13  C   UNL     1     -16.741  -2.273  -2.452  0.00  0.00    +0.130 C 
BRANCH  13  14
ATOM     14  C   UNL     1     -17.681  -3.478  -2.578  0.00  0.00    +0.174 C 
BRANCH  14  15
ATOM     15  O   UNL     1     -18.473  -3.402  -3.759  0.00  0.00    -0.393 OA
ATOM     16  H   UNL     1     -19.269  -3.942  -3.619  0.00  0.00    +0.209 HD
ENDBRANCH  14  15
ENDBRANCH  13  14
ENDBRANCH   5  13
TORSDOF 4
ENDMDL
MODEL 8
REMARK VINA RESULT:      -4.2     13.426     14.079
REMARK  Name = min_compound95.pdb
REMARK  4 active torsions:
REMARK  status: ('A' for Active; 'I' for Inactive)
REMARK    1  A    between atoms: _4  and  _8
REMARK    2  A    between atoms: _9  and  _10
REMARK    3  A    between atoms: _10  and  _11
REMARK    4  A    between atoms: _11  and  _12
REMARK                            x       y       z     vdW  Elec       q    Type
REMARK                         _______ _______ _______ _____ _____    ______ ____
ROOT
ATOM      1 CL   UNL     1     -12.022   6.311 -18.060  0.00  0.00    -0.060 Cl
ATOM      2  C   UNL     1     -11.555   4.811 -17.349  0.00  0.00    +0.155 A 
ATOM      3  C   UNL     1     -12.028   3.604 -17.846  0.00  0.00    +0.102 A 
ATOM      4  C   UNL     1     -11.615   2.490 -17.107  0.00  0.00    +0.144 A 
ATOM      5  N   UNL     1     -12.139   1.227 -17.492  0.00  0.00    -0.325 N 
ATOM      6  H   UNL     1     -13.154   1.331 -17.509  0.00  0.00    +0.148 HD
ATOM      7  N   UNL     1     -10.735   2.579 -16.092  0.00  0.00    -0.219 NA
ATOM      8  C   UNL     1     -10.313   3.807 -15.760  0.00  0.00    +0.225 A 
ATOM      9  N   UNL     1     -10.689   4.952 -16.331  0.00  0.00    -0.222 NA
ENDROOT
BRANCH   3  10
ATOM     10  N   UNL     1     -13.024   3.483 -18.849  0.00  0.00    -0.353 N 
ATOM     11  H   UNL     1     -12.638   3.608 -19.784  0.00  0.00    +0.143 HD
ATOM     12  H   UNL     1     -13.507   2.589 -18.751  0.00  0.00    +0.143 HD
ENDBRANCH   3  10
BRANCH   5  13
ATOM     13  C   UNL     1     -11.698   0.114 -16.654  0.00  0.00    +0.130 C 
BRANCH  13  14
ATOM     14  C   UNL     1     -10.466  -0.562 -17.268  0.00  0.00    +0.174 C 
BRANCH  14  15
ATOM     15  O   UNL     1      -9.443  -0.763 -16.298  0.00  0.00    -0.393 OA
ATOM     16  H   UNL     1      -9.556  -0.094 -15.602  0.00  0.00    +0.209 HD
ENDBRANCH  14  15
ENDBRANCH  13  14
ENDBRANCH   5  13
TORSDOF 4
ENDMDL
MODEL 9
REMARK VINA RESULT:      -4.1     12.388     13.315
REMARK  Name = min_compound95.pdb
REMARK  4 active torsions:
REMARK  status: ('A' for Active; 'I' for Inactive)
REMARK    1  A    between atoms: _4  and  _8
REMARK    2  A    between atoms: _9  and  _10
REMARK    3  A    between atoms: _10  and  _11
REMARK    4  A    between atoms: _11  and  _12
REMARK                            x       y       z     vdW  Elec       q    Type
REMARK                         _______ _______ _______ _____ _____    ______ ____
ROOT
ATOM      1 CL   UNL     1      -9.417   0.619 -17.362  0.00  0.00    -0.060 Cl
ATOM      2  C   UNL     1     -10.675   1.746 -17.016  0.00  0.00    +0.155 A 
ATOM      3  C   UNL     1     -11.945   1.315 -16.658  0.00  0.00    +0.102 A 
ATOM      4  C   UNL     1     -12.866   2.355 -16.488  0.00  0.00    +0.144 A 
ATOM      5  N   UNL     1     -14.213   1.990 -16.219  0.00  0.00    -0.325 N 
ATOM      6  H   UNL     1     -14.486   1.340 -16.957  0.00  0.00    +0.148 HD
ATOM      7  N   UNL     1     -12.512   3.652 -16.539  0.00  0.00    -0.219 NA
ATOM      8  C   UNL     1     -11.233   3.921 -16.835  0.00  0.00    +0.225 A 
ATOM      9  N   UNL     1     -10.278   3.028 -17.096  0.00  0.00    -0.222 NA
ENDROOT
BRANCH   3  10
ATOM     10  N   UNL     1     -12.372  -0.038 -16.686  0.00  0.00    -0.353 N 
ATOM     11  H   UNL     1     -11.770  -0.637 -16.122  0.00  0.00    +0.143 HD
ATOM     12  H   UNL     1     -13.349  -0.098 -16.398  0.00  0.00    +0.143 HD
ENDBRANCH   3  10
BRANCH   5  13
ATOM     13  C   UNL     1     -15.127   3.122 -16.093  0.00  0.00    +0.130 C 
BRANCH  13  14
ATOM     14  C   UNL     1     -15.457   3.380 -14.617  0.00  0.00    +0.174 C 
BRANCH  14  15
ATOM     15  O   UNL     1     -14.435   4.139 -13.979  0.00  0.00    -0.393 OA
ATOM     16  H   UNL     1     -13.911   3.532 -13.430  0.00  0.00    +0.209 HD
ENDBRANCH  14  15
ENDBRANCH  13  14
ENDBRANCH   5  13
TORSDOF 4
ENDMDL
