MODEL 1
REMARK VINA RESULT:      -8.0      0.000      0.000
REMARK  Name = min_compound991.pdb
REMARK  6 active torsions:
REMARK  status: ('A' for Active; 'I' for Inactive)
REMARK    1  A    between atoms: _1  and  _7
REMARK    2  A    between atoms: _1  and  _20
REMARK    3  A    between atoms: _8  and  _20
REMARK    4  A    between atoms: _10  and  _22
REMARK    5  A    between atoms: _15  and  _24
REMARK    6  A    between atoms: _22  and  _24
REMARK                            x       y       z     vdW  Elec       q    Type
REMARK                         _______ _______ _______ _____ _____    ______ ____
ROOT
ATOM      1  C   UNL     1     -14.058   5.169 -17.501  0.00  0.00    +0.073 A 
ATOM      2  C   UNL     1     -14.248   6.312 -18.285  0.00  0.00    +0.016 A 
ATOM      3  C   UNL     1     -13.161   7.139 -18.580  0.00  0.00    +0.001 A 
ATOM      4  C   UNL     1     -11.887   6.831 -18.094  0.00  0.00    +0.001 A 
ATOM      5  C   UNL     1     -11.691   5.684 -17.322  0.00  0.00    +0.016 A 
ATOM      6  C   UNL     1     -12.781   4.856 -17.030  0.00  0.00    +0.073 A 
ENDROOT
BRANCH   6   7
ATOM      7  C   UNL     1     -12.555   3.562 -16.388  0.00  0.00    +0.340 C 
ATOM      8  O   UNL     1     -12.681   3.410 -15.184  0.00  0.00    -0.245 OA
BRANCH   7   9
ATOM      9  O   UNL     1     -12.239   2.595 -17.299  0.00  0.00    -0.458 OA
BRANCH   9  10
ATOM     10  C   UNL     1     -11.561   1.470 -16.588  0.00  0.00    +0.177 C 
ATOM     11  C   UNL     1     -11.740  -0.018 -17.123  0.00  0.00    +0.044 C 
ATOM     12  C   UNL     1     -10.916  -0.989 -16.051  0.00  0.00    +0.004 C 
ATOM     13  C   UNL     1      -9.502  -0.707 -16.462  0.00  0.00    +0.000 C 
ATOM     14  C   UNL     1      -9.371   0.370 -17.469  0.00  0.00    +0.004 C 
ATOM     15  C   UNL     1     -10.147   1.751 -16.999  0.00  0.00    +0.044 C 
ENDBRANCH   9  10
ENDBRANCH   7   9
ENDBRANCH   6   7
BRANCH   1  16
ATOM     16  C   UNL     1     -15.242   4.379 -17.107  0.00  0.00    +0.340 C 
ATOM     17  O   UNL     1     -15.703   3.441 -17.727  0.00  0.00    -0.245 OA
BRANCH  16  18
ATOM     18  O   UNL     1     -15.840   5.087 -16.113  0.00  0.00    -0.458 OA
BRANCH  18  19
ATOM     19  C   UNL     1     -15.997   4.493 -14.745  0.00  0.00    +0.177 C 
ATOM     20  C   UNL     1     -16.882   3.299 -14.543  0.00  0.00    +0.044 C 
ATOM     21  C   UNL     1     -17.039   2.704 -13.174  0.00  0.00    +0.004 C 
ATOM     22  C   UNL     1     -16.775   3.711 -11.988  0.00  0.00    +0.000 C 
ATOM     23  C   UNL     1     -15.425   4.497 -12.210  0.00  0.00    +0.004 C 
ATOM     24  C   UNL     1     -15.268   5.092 -13.579  0.00  0.00    +0.044 C 
ENDBRANCH  18  19
ENDBRANCH  16  18
ENDBRANCH   1  16
TORSDOF 6
ENDMDL
MODEL 2
REMARK VINA RESULT:      -7.9      1.024      5.979
REMARK  Name = min_compound991.pdb
REMARK  6 active torsions:
REMARK  status: ('A' for Active; 'I' for Inactive)
REMARK    1  A    between atoms: _1  and  _7
REMARK    2  A    between atoms: _1  and  _20
REMARK    3  A    between atoms: _8  and  _20
REMARK    4  A    between atoms: _10  and  _22
REMARK    5  A    between atoms: _15  and  _24
REMARK    6  A    between atoms: _22  and  _24
REMARK                            x       y       z     vdW  Elec       q    Type
REMARK                         _______ _______ _______ _____ _____    ______ ____
ROOT
ATOM      1  C   UNL     1     -12.322   4.981 -17.007  0.00  0.00    +0.073 A 
ATOM      2  C   UNL     1     -11.753   6.142 -17.542  0.00  0.00    +0.016 A 
ATOM      3  C   UNL     1     -12.576   7.123 -18.103  0.00  0.00    +0.001 A 
ATOM      4  C   UNL     1     -13.962   6.947 -18.134  0.00  0.00    +0.001 A 
ATOM      5  C   UNL     1     -14.534   5.796 -17.589  0.00  0.00    +0.016 A 
ATOM      6  C   UNL     1     -13.708   4.817 -17.025  0.00  0.00    +0.073 A 
ENDROOT
BRANCH   6   7
ATOM      7  C   UNL     1     -14.305   3.705 -16.287  0.00  0.00    +0.340 C 
ATOM      8  O   UNL     1     -14.756   2.724 -16.856  0.00  0.00    -0.245 OA
BRANCH   7   9
ATOM      9  O   UNL     1     -14.244   3.905 -14.938  0.00  0.00    -0.458 OA
BRANCH   9  10
ATOM     10  C   UNL     1     -15.636   4.015 -14.407  0.00  0.00    +0.177 C 
ATOM     11  C   UNL     1     -16.416   2.700 -13.970  0.00  0.00    +0.044 C 
ATOM     12  C   UNL     1     -17.934   3.202 -13.511  0.00  0.00    +0.004 C 
ATOM     13  C   UNL     1     -17.627   3.808 -12.173  0.00  0.00    +0.000 C 
ATOM     14  C   UNL     1     -16.182   3.880 -11.864  0.00  0.00    +0.004 C 
ATOM     15  C   UNL     1     -15.328   4.621 -13.070  0.00  0.00    +0.044 C 
ENDBRANCH   9  10
ENDBRANCH   7   9
ENDBRANCH   6   7
BRANCH   1  16
ATOM     16  C   UNL     1     -11.422   3.912 -16.529  0.00  0.00    +0.340 C 
ATOM     17  O   UNL     1     -10.670   3.994 -15.578  0.00  0.00    -0.245 OA
BRANCH  16  18
ATOM     18  O   UNL     1     -11.409   2.976 -17.515  0.00  0.00    -0.458 OA
BRANCH  18  19
ATOM     19  C   UNL     1     -11.050   1.553 -17.208  0.00  0.00    +0.177 C 
ATOM     20  C   UNL     1     -12.092   0.616 -16.671  0.00  0.00    +0.044 C 
ATOM     21  C   UNL     1     -11.733  -0.808 -16.364  0.00  0.00    +0.004 C 
ATOM     22  C   UNL     1     -10.206  -1.044 -16.044  0.00  0.00    +0.000 C 
ATOM     23  C   UNL     1      -9.292  -0.358 -17.132  0.00  0.00    +0.004 C 
ATOM     24  C   UNL     1      -9.651   1.066 -17.439  0.00  0.00    +0.044 C 
ENDBRANCH  18  19
ENDBRANCH  16  18
ENDBRANCH   1  16
TORSDOF 6
ENDMDL
MODEL 3
REMARK VINA RESULT:      -7.7      1.162      2.030
REMARK  Name = min_compound991.pdb
REMARK  6 active torsions:
REMARK  status: ('A' for Active; 'I' for Inactive)
REMARK    1  A    between atoms: _1  and  _7
REMARK    2  A    between atoms: _1  and  _20
REMARK    3  A    between atoms: _8  and  _20
REMARK    4  A    between atoms: _10  and  _22
REMARK    5  A    between atoms: _15  and  _24
REMARK    6  A    between atoms: _22  and  _24
REMARK                            x       y       z     vdW  Elec       q    Type
REMARK                         _______ _______ _______ _____ _____    ______ ____
ROOT
ATOM      1  C   UNL     1     -14.169   4.350 -17.311  0.00  0.00    +0.073 A 
ATOM      2  C   UNL     1     -14.197   5.731 -17.084  0.00  0.00    +0.016 A 
ATOM      3  C   UNL     1     -13.068   6.503 -17.371  0.00  0.00    +0.001 A 
ATOM      4  C   UNL     1     -11.912   5.903 -17.879  0.00  0.00    +0.001 A 
ATOM      5  C   UNL     1     -11.886   4.528 -18.119  0.00  0.00    +0.016 A 
ATOM      6  C   UNL     1     -13.019   3.757 -17.834  0.00  0.00    +0.073 A 
ENDROOT
BRANCH   6   7
ATOM      7  C   UNL     1     -13.066   2.358 -18.257  0.00  0.00    +0.340 C 
ATOM      8  O   UNL     1     -13.298   2.042 -19.412  0.00  0.00    -0.245 OA
BRANCH   7   9
ATOM      9  O   UNL     1     -12.783   1.510 -17.224  0.00  0.00    -0.458 OA
BRANCH   9  10
ATOM     10  C   UNL     1     -11.562   0.724 -17.572  0.00  0.00    +0.177 C 
ATOM     11  C   UNL     1     -10.131   1.259 -17.126  0.00  0.00    +0.044 C 
ATOM     12  C   UNL     1      -9.028   0.178 -17.745  0.00  0.00    +0.004 C 
ATOM     13  C   UNL     1      -9.210  -0.969 -16.796  0.00  0.00    +0.000 C 
ATOM     14  C   UNL     1     -10.332  -0.792 -15.848  0.00  0.00    +0.004 C 
ATOM     15  C   UNL     1     -11.744  -0.423 -16.623  0.00  0.00    +0.044 C 
ENDBRANCH   9  10
ENDBRANCH   7   9
ENDBRANCH   6   7
BRANCH   1  16
ATOM     16  C   UNL     1     -15.332   3.543 -16.890  0.00  0.00    +0.340 C 
ATOM     17  O   UNL     1     -16.450   3.616 -17.361  0.00  0.00    -0.245 OA
BRANCH  16  18
ATOM     18  O   UNL     1     -14.963   2.951 -15.724  0.00  0.00    -0.458 OA
BRANCH  18  19
ATOM     19  C   UNL     1     -15.558   3.399 -14.422  0.00  0.00    +0.177 C 
ATOM     20  C   UNL     1     -14.956   4.557 -13.682  0.00  0.00    +0.044 C 
ATOM     21  C   UNL     1     -15.551   5.006 -12.380  0.00  0.00    +0.004 C 
ATOM     22  C   UNL     1     -16.340   3.884 -11.600  0.00  0.00    +0.000 C 
ATOM     23  C   UNL     1     -17.348   3.138 -12.557  0.00  0.00    +0.004 C 
ATOM     24  C   UNL     1     -16.754   2.690 -13.859  0.00  0.00    +0.044 C 
ENDBRANCH  18  19
ENDBRANCH  16  18
ENDBRANCH   1  16
TORSDOF 6
ENDMDL
MODEL 4
REMARK VINA RESULT:      -7.6      0.750      6.006
REMARK  Name = min_compound991.pdb
REMARK  6 active torsions:
REMARK  status: ('A' for Active; 'I' for Inactive)
REMARK    1  A    between atoms: _1  and  _7
REMARK    2  A    between atoms: _1  and  _20
REMARK    3  A    between atoms: _8  and  _20
REMARK    4  A    between atoms: _10  and  _22
REMARK    5  A    between atoms: _15  and  _24
REMARK    6  A    between atoms: _22  and  _24
REMARK                            x       y       z     vdW  Elec       q    Type
REMARK                         _______ _______ _______ _____ _____    ______ ____
ROOT
ATOM      1  C   UNL     1     -12.901   5.060 -16.927  0.00  0.00    +0.073 A 
ATOM      2  C   UNL     1     -11.719   5.578 -17.466  0.00  0.00    +0.016 A 
ATOM      3  C   UNL     1     -11.751   6.778 -18.182  0.00  0.00    +0.001 A 
ATOM      4  C   UNL     1     -12.958   7.459 -18.363  0.00  0.00    +0.001 A 
ATOM      5  C   UNL     1     -14.137   6.952 -17.815  0.00  0.00    +0.016 A 
ATOM      6  C   UNL     1     -14.102   5.751 -17.096  0.00  0.00    +0.073 A 
ENDROOT
BRANCH   6   7
ATOM      7  C   UNL     1     -15.288   5.313 -16.363  0.00  0.00    +0.340 C 
ATOM      8  O   UNL     1     -16.174   4.667 -16.898  0.00  0.00    -0.245 OA
BRANCH   7   9
ATOM      9  O   UNL     1     -15.234   5.682 -15.049  0.00  0.00    -0.458 OA
BRANCH   9  10
ATOM     10  C   UNL     1     -16.218   4.862 -14.281  0.00  0.00    +0.177 C 
ATOM     11  C   UNL     1     -15.880   3.345 -13.940  0.00  0.00    +0.044 C 
ATOM     12  C   UNL     1     -17.220   2.745 -13.156  0.00  0.00    +0.004 C 
ATOM     13  C   UNL     1     -17.054   3.383 -11.809  0.00  0.00    +0.000 C 
ATOM     14  C   UNL     1     -15.947   4.362 -11.739  0.00  0.00    +0.004 C 
ATOM     15  C   UNL     1     -16.052   5.500 -12.933  0.00  0.00    +0.044 C 
ENDBRANCH   9  10
ENDBRANCH   7   9
ENDBRANCH   6   7
BRANCH   1  16
ATOM     16  C   UNL     1     -12.858   3.734 -16.278  0.00  0.00    +0.340 C 
ATOM     17  O   UNL     1     -12.731   3.535 -15.086  0.00  0.00    -0.245 OA
BRANCH  16  18
ATOM     18  O   UNL     1     -12.699   2.837 -17.287  0.00  0.00    -0.458 OA
BRANCH  18  19
ATOM     19  C   UNL     1     -11.791   1.655 -17.119  0.00  0.00    +0.177 C 
ATOM     20  C   UNL     1     -10.327   1.786 -17.417  0.00  0.00    +0.044 C 
ATOM     21  C   UNL     1      -9.419   0.604 -17.249  0.00  0.00    +0.004 C 
ATOM     22  C   UNL     1     -10.136  -0.796 -17.374  0.00  0.00    +0.000 C 
ATOM     23  C   UNL     1     -11.440  -0.840 -16.485  0.00  0.00    +0.004 C 
ATOM     24  C   UNL     1     -12.348   0.342 -16.653  0.00  0.00    +0.044 C 
ENDBRANCH  18  19
ENDBRANCH  16  18
ENDBRANCH   1  16
TORSDOF 6
ENDMDL
MODEL 5
REMARK VINA RESULT:      -7.4      2.336      5.534
REMARK  Name = min_compound991.pdb
REMARK  6 active torsions:
REMARK  status: ('A' for Active; 'I' for Inactive)
REMARK    1  A    between atoms: _1  and  _7
REMARK    2  A    between atoms: _1  and  _20
REMARK    3  A    between atoms: _8  and  _20
REMARK    4  A    between atoms: _10  and  _22
REMARK    5  A    between atoms: _15  and  _24
REMARK    6  A    between atoms: _22  and  _24
REMARK                            x       y       z     vdW  Elec       q    Type
REMARK                         _______ _______ _______ _____ _____    ______ ____
ROOT
ATOM      1  C   UNL     1     -12.854   5.272 -17.015  0.00  0.00    +0.073 A 
ATOM      2  C   UNL     1     -14.188   5.646 -16.816  0.00  0.00    +0.016 A 
ATOM      3  C   UNL     1     -15.006   4.880 -15.981  0.00  0.00    +0.001 A 
ATOM      4  C   UNL     1     -14.499   3.742 -15.348  0.00  0.00    +0.001 A 
ATOM      5  C   UNL     1     -13.165   3.373 -15.534  0.00  0.00    +0.016 A 
ATOM      6  C   UNL     1     -12.347   4.144 -16.368  0.00  0.00    +0.073 A 
ENDROOT
BRANCH   6   7
ATOM      7  C   UNL     1     -10.911   3.877 -16.419  0.00  0.00    +0.340 C 
ATOM      8  O   UNL     1     -10.163   4.203 -15.512  0.00  0.00    -0.245 OA
BRANCH   7   9
ATOM      9  O   UNL     1     -10.563   3.206 -17.557  0.00  0.00    -0.458 OA
BRANCH   9  10
ATOM     10  C   UNL     1     -10.205   1.802 -17.194  0.00  0.00    +0.177 C 
ATOM     11  C   UNL     1     -10.393   1.307 -15.694  0.00  0.00    +0.044 C 
ATOM     12  C   UNL     1      -9.829  -0.258 -15.657  0.00  0.00    +0.004 C 
ATOM     13  C   UNL     1     -10.961  -0.971 -16.334  0.00  0.00    +0.000 C 
ATOM     14  C   UNL     1     -11.993  -0.067 -16.890  0.00  0.00    +0.004 C 
ATOM     15  C   UNL     1     -11.338   1.090 -17.871  0.00  0.00    +0.044 C 
ENDBRANCH   9  10
ENDBRANCH   7   9
ENDBRANCH   6   7
BRANCH   1  16
ATOM     16  C   UNL     1     -12.048   6.030 -17.993  0.00  0.00    +0.340 C 
ATOM     17  O   UNL     1     -11.496   7.092 -17.781  0.00  0.00    -0.245 OA
BRANCH  16  18
ATOM     18  O   UNL     1     -12.299   5.455 -19.199  0.00  0.00    -0.458 OA
BRANCH  18  19
ATOM     19  C   UNL     1     -12.503   6.304 -20.418  0.00  0.00    +0.177 C 
ATOM     20  C   UNL     1     -13.892   6.653 -20.864  0.00  0.00    +0.044 C 
ATOM     21  C   UNL     1     -14.097   7.502 -22.084  0.00  0.00    +0.004 C 
ATOM     22  C   UNL     1     -12.915   7.445 -23.128  0.00  0.00    +0.000 C 
ATOM     23  C   UNL     1     -11.524   7.652 -22.412  0.00  0.00    +0.004 C 
ATOM     24  C   UNL     1     -11.319   6.803 -21.192  0.00  0.00    +0.044 C 
ENDBRANCH  18  19
ENDBRANCH  16  18
ENDBRANCH   1  16
TORSDOF 6
ENDMDL
MODEL 6
REMARK VINA RESULT:      -7.2      2.383      6.565
REMARK  Name = min_compound991.pdb
REMARK  6 active torsions:
REMARK  status: ('A' for Active; 'I' for Inactive)
REMARK    1  A    between atoms: _1  and  _7
REMARK    2  A    between atoms: _1  and  _20
REMARK    3  A    between atoms: _8  and  _20
REMARK    4  A    between atoms: _10  and  _22
REMARK    5  A    between atoms: _15  and  _24
REMARK    6  A    between atoms: _22  and  _24
REMARK                            x       y       z     vdW  Elec       q    Type
REMARK                         _______ _______ _______ _____ _____    ______ ____
ROOT
ATOM      1  C   UNL     1     -12.857   4.425 -16.488  0.00  0.00    +0.073 A 
ATOM      2  C   UNL     1     -13.764   3.723 -15.687  0.00  0.00    +0.016 A 
ATOM      3  C   UNL     1     -15.047   4.237 -15.478  0.00  0.00    +0.001 A 
ATOM      4  C   UNL     1     -15.425   5.448 -16.064  0.00  0.00    +0.001 A 
ATOM      5  C   UNL     1     -14.527   6.144 -16.875  0.00  0.00    +0.016 A 
ATOM      6  C   UNL     1     -13.244   5.626 -17.085  0.00  0.00    +0.073 A 
ENDROOT
BRANCH   6   7
ATOM      7  C   UNL     1     -12.367   6.245 -18.077  0.00  0.00    +0.340 C 
ATOM      8  O   UNL     1     -11.523   7.070 -17.766  0.00  0.00    -0.245 OA
BRANCH   7   9
ATOM      9  O   UNL     1     -12.599   5.755 -19.331  0.00  0.00    -0.458 OA
BRANCH   9  10
ATOM     10  C   UNL     1     -12.321   6.833 -20.326  0.00  0.00    +0.177 C 
ATOM     11  C   UNL     1     -11.347   6.540 -21.549  0.00  0.00    +0.044 C 
ATOM     12  C   UNL     1     -11.222   7.974 -22.385  0.00  0.00    +0.004 C 
ATOM     13  C   UNL     1     -12.551   7.999 -23.080  0.00  0.00    +0.000 C 
ATOM     14  C   UNL     1     -13.468   6.916 -22.662  0.00  0.00    +0.004 C 
ATOM     15  C   UNL     1     -13.650   6.859 -21.021  0.00  0.00    +0.044 C 
ENDBRANCH   9  10
ENDBRANCH   7   9
ENDBRANCH   6   7
BRANCH   1  16
ATOM     16  C   UNL     1     -11.473   3.919 -16.596  0.00  0.00    +0.340 C 
ATOM     17  O   UNL     1     -10.490   4.444 -16.112  0.00  0.00    -0.245 OA
BRANCH  16  18
ATOM     18  O   UNL     1     -11.510   2.955 -17.553  0.00  0.00    -0.458 OA
BRANCH  18  19
ATOM     19  C   UNL     1     -11.097   1.548 -17.233  0.00  0.00    +0.177 C 
ATOM     20  C   UNL     1     -12.096   0.585 -16.664  0.00  0.00    +0.044 C 
ATOM     21  C   UNL     1     -11.684  -0.821 -16.343  0.00  0.00    +0.004 C 
ATOM     22  C   UNL     1     -10.145  -1.001 -16.046  0.00  0.00    +0.000 C 
ATOM     23  C   UNL     1      -9.273  -0.300 -17.160  0.00  0.00    +0.004 C 
ATOM     24  C   UNL     1      -9.686   1.106 -17.481  0.00  0.00    +0.044 C 
ENDBRANCH  18  19
ENDBRANCH  16  18
ENDBRANCH   1  16
TORSDOF 6
ENDMDL
MODEL 7
REMARK VINA RESULT:      -7.2      2.817      5.832
REMARK  Name = min_compound991.pdb
REMARK  6 active torsions:
REMARK  status: ('A' for Active; 'I' for Inactive)
REMARK    1  A    between atoms: _1  and  _7
REMARK    2  A    between atoms: _1  and  _20
REMARK    3  A    between atoms: _8  and  _20
REMARK    4  A    between atoms: _10  and  _22
REMARK    5  A    between atoms: _15  and  _24
REMARK    6  A    between atoms: _22  and  _24
REMARK                            x       y       z     vdW  Elec       q    Type
REMARK                         _______ _______ _______ _____ _____    ______ ____
ROOT
ATOM      1  C   UNL     1     -12.532   3.308 -16.705  0.00  0.00    +0.073 A 
ATOM      2  C   UNL     1     -11.620   3.145 -15.656  0.00  0.00    +0.016 A 
ATOM      3  C   UNL     1     -10.549   4.033 -15.524  0.00  0.00    +0.001 A 
ATOM      4  C   UNL     1     -10.383   5.079 -16.436  0.00  0.00    +0.001 A 
ATOM      5  C   UNL     1     -11.298   5.252 -17.476  0.00  0.00    +0.016 A 
ATOM      6  C   UNL     1     -12.372   4.364 -17.604  0.00  0.00    +0.073 A 
ENDROOT
BRANCH   6   7
ATOM      7  C   UNL     1     -13.433   4.647 -18.569  0.00  0.00    +0.340 C 
ATOM      8  O   UNL     1     -14.466   5.208 -18.244  0.00  0.00    -0.245 OA
BRANCH   7   9
ATOM      9  O   UNL     1     -13.090   4.245 -19.828  0.00  0.00    -0.458 OA
BRANCH   9  10
ATOM     10  C   UNL     1     -14.253   3.531 -20.436  0.00  0.00    +0.177 C 
ATOM     11  C   UNL     1     -14.833   4.024 -21.833  0.00  0.00    +0.044 C 
ATOM     12  C   UNL     1     -16.147   3.052 -22.149  0.00  0.00    +0.004 C 
ATOM     13  C   UNL     1     -15.455   1.787 -22.560  0.00  0.00    +0.000 C 
ATOM     14  C   UNL     1     -13.986   1.819 -22.381  0.00  0.00    +0.004 C 
ATOM     15  C   UNL     1     -13.560   2.265 -20.848  0.00  0.00    +0.044 C 
ENDBRANCH   9  10
ENDBRANCH   7   9
ENDBRANCH   6   7
BRANCH   1  16
ATOM     16  C   UNL     1     -13.584   2.288 -16.889  0.00  0.00    +0.340 C 
ATOM     17  O   UNL     1     -14.595   2.188 -16.222  0.00  0.00    -0.245 OA
BRANCH  16  18
ATOM     18  O   UNL     1     -13.052   1.360 -17.728  0.00  0.00    -0.458 OA
BRANCH  18  19
ATOM     19  C   UNL     1     -11.902   0.505 -17.284  0.00  0.00    +0.177 C 
ATOM     20  C   UNL     1     -12.112  -0.549 -16.237  0.00  0.00    +0.044 C 
ATOM     21  C   UNL     1     -10.963  -1.405 -15.793  0.00  0.00    +0.004 C 
ATOM     22  C   UNL     1      -9.543  -0.746 -15.988  0.00  0.00    +0.000 C 
ATOM     23  C   UNL     1      -9.394  -0.153 -17.442  0.00  0.00    +0.004 C 
ATOM     24  C   UNL     1     -10.543   0.703 -17.886  0.00  0.00    +0.044 C 
ENDBRANCH  18  19
ENDBRANCH  16  18
ENDBRANCH   1  16
TORSDOF 6
ENDMDL
MODEL 8
REMARK VINA RESULT:      -7.1      1.385      4.984
REMARK  Name = min_compound991.pdb
REMARK  6 active torsions:
REMARK  status: ('A' for Active; 'I' for Inactive)
REMARK    1  A    between atoms: _1  and  _7
REMARK    2  A    between atoms: _1  and  _20
REMARK    3  A    between atoms: _8  and  _20
REMARK    4  A    between atoms: _10  and  _22
REMARK    5  A    between atoms: _15  and  _24
REMARK    6  A    between atoms: _22  and  _24
REMARK                            x       y       z     vdW  Elec       q    Type
REMARK                         _______ _______ _______ _____ _____    ______ ____
ROOT
ATOM      1  C   UNL     1     -12.332   1.681 -16.726  0.00  0.00    +0.073 A 
ATOM      2  C   UNL     1     -12.380   0.287 -16.619  0.00  0.00    +0.016 A 
ATOM      3  C   UNL     1     -11.219  -0.464 -16.821  0.00  0.00    +0.001 A 
ATOM      4  C   UNL     1     -10.013   0.171 -17.132  0.00  0.00    +0.001 A 
ATOM      5  C   UNL     1      -9.959   1.562 -17.227  0.00  0.00    +0.016 A 
ATOM      6  C   UNL     1     -11.123   2.313 -17.021  0.00  0.00    +0.073 A 
ENDROOT
BRANCH   6   7
ATOM      7  C   UNL     1     -11.037   3.769 -16.931  0.00  0.00    +0.340 C 
ATOM      8  O   UNL     1     -10.786   4.336 -15.880  0.00  0.00    -0.245 OA
BRANCH   7   9
ATOM      9  O   UNL     1     -11.229   4.361 -18.147  0.00  0.00    -0.458 OA
BRANCH   9  10
ATOM     10  C   UNL     1     -12.403   5.280 -18.051  0.00  0.00    +0.177 C 
ATOM     11  C   UNL     1     -12.170   6.854 -18.058  0.00  0.00    +0.044 C 
ATOM     12  C   UNL     1     -13.674   7.538 -17.863  0.00  0.00    +0.004 C 
ATOM     13  C   UNL     1     -14.247   7.330 -19.234  0.00  0.00    +0.000 C 
ATOM     14  C   UNL     1     -13.395   6.508 -20.123  0.00  0.00    +0.004 C 
ATOM     15  C   UNL     1     -12.975   5.072 -19.422  0.00  0.00    +0.044 C 
ENDBRANCH   9  10
ENDBRANCH   7   9
ENDBRANCH   6   7
BRANCH   1  16
ATOM     16  C   UNL     1     -13.596   2.440 -16.624  0.00  0.00    +0.340 C 
ATOM     17  O   UNL     1     -14.366   2.655 -17.539  0.00  0.00    -0.245 OA
BRANCH  16  18
ATOM     18  O   UNL     1     -13.554   3.059 -15.415  0.00  0.00    -0.458 OA
BRANCH  18  19
ATOM     19  C   UNL     1     -14.814   3.292 -14.635  0.00  0.00    +0.177 C 
ATOM     20  C   UNL     1     -14.867   4.379 -13.603  0.00  0.00    +0.044 C 
ATOM     21  C   UNL     1     -16.128   4.612 -12.824  0.00  0.00    +0.004 C 
ATOM     22  C   UNL     1     -17.064   3.348 -12.700  0.00  0.00    +0.000 C 
ATOM     23  C   UNL     1     -17.281   2.670 -14.108  0.00  0.00    +0.004 C 
ATOM     24  C   UNL     1     -16.020   2.437 -14.888  0.00  0.00    +0.044 C 
ENDBRANCH  18  19
ENDBRANCH  16  18
ENDBRANCH   1  16
TORSDOF 6
ENDMDL
MODEL 9
REMARK VINA RESULT:      -7.1     10.870     14.063
REMARK  Name = min_compound991.pdb
REMARK  6 active torsions:
REMARK  status: ('A' for Active; 'I' for Inactive)
REMARK    1  A    between atoms: _1  and  _7
REMARK    2  A    between atoms: _1  and  _20
REMARK    3  A    between atoms: _8  and  _20
REMARK    4  A    between atoms: _10  and  _22
REMARK    5  A    between atoms: _15  and  _24
REMARK    6  A    between atoms: _22  and  _24
REMARK                            x       y       z     vdW  Elec       q    Type
REMARK                         _______ _______ _______ _____ _____    ______ ____
ROOT
ATOM      1  C   UNL     1     -15.885   0.639  -3.501  0.00  0.00    +0.073 A 
ATOM      2  C   UNL     1     -15.984   2.005  -3.787  0.00  0.00    +0.016 A 
ATOM      3  C   UNL     1     -14.827   2.787  -3.847  0.00  0.00    +0.001 A 
ATOM      4  C   UNL     1     -13.574   2.211  -3.620  0.00  0.00    +0.001 A 
ATOM      5  C   UNL     1     -13.470   0.846  -3.347  0.00  0.00    +0.016 A 
ATOM      6  C   UNL     1     -14.630   0.065  -3.290  0.00  0.00    +0.073 A 
ENDROOT
BRANCH   6   7
ATOM      7  C   UNL     1     -14.518  -1.390  -3.194  0.00  0.00    +0.340 C 
ATOM      8  O   UNL     1     -14.403  -2.094  -4.184  0.00  0.00    -0.245 OA
BRANCH   7   9
ATOM      9  O   UNL     1     -14.519  -1.810  -1.895  0.00  0.00    -0.458 OA
BRANCH   9  10
ATOM     10  C   UNL     1     -14.454  -3.303  -1.875  0.00  0.00    +0.177 C 
ATOM     11  C   UNL     1     -13.163  -4.024  -1.289  0.00  0.00    +0.044 C 
ATOM     12  C   UNL     1     -13.418  -5.655  -1.500  0.00  0.00    +0.004 C 
ATOM     13  C   UNL     1     -14.411  -5.918  -0.407  0.00  0.00    +0.000 C 
ATOM     14  C   UNL     1     -14.884  -4.697   0.282  0.00  0.00    +0.004 C 
ATOM     15  C   UNL     1     -15.447  -3.566  -0.782  0.00  0.00    +0.044 C 
ENDBRANCH   9  10
ENDBRANCH   7   9
ENDBRANCH   6   7
BRANCH   1  16
ATOM     16  C   UNL     1     -17.130  -0.137  -3.328  0.00  0.00    +0.340 C 
ATOM     17  O   UNL     1     -17.795  -0.188  -2.313  0.00  0.00    -0.245 OA
BRANCH  16  18
ATOM     18  O   UNL     1     -17.194  -0.969  -4.402  0.00  0.00    -0.458 OA
BRANCH  18  19
ATOM     19  C   UNL     1     -17.328  -0.411  -5.788  0.00  0.00    +0.177 C 
ATOM     20  C   UNL     1     -16.328  -0.778  -6.844  0.00  0.00    +0.044 C 
ATOM     21  C   UNL     1     -16.463  -0.221  -8.230  0.00  0.00    +0.004 C 
ATOM     22  C   UNL     1     -17.245   1.148  -8.313  0.00  0.00    +0.000 C 
ATOM     23  C   UNL     1     -18.597   1.071  -7.504  0.00  0.00    +0.004 C 
ATOM     24  C   UNL     1     -18.463   0.513  -6.118  0.00  0.00    +0.044 C 
ENDBRANCH  18  19
ENDBRANCH  16  18
ENDBRANCH   1  16
TORSDOF 6
ENDMDL
