MODEL 1
REMARK VINA RESULT:      -6.9      0.000      0.000
REMARK  Name = min_compound946.pdb
REMARK  4 active torsions:
REMARK  status: ('A' for Active; 'I' for Inactive)
REMARK    1  A    between atoms: _1  and  _3
REMARK    2  A    between atoms: _1  and  _20
REMARK    3  A    between atoms: _2  and  _4
REMARK    4  A    between atoms: _2  and  _21
REMARK                            x       y       z     vdW  Elec       q    Type
REMARK                         _______ _______ _______ _____ _____    ______ ____
ROOT
ATOM      1  C   UNL     1     -14.953  -3.759  -2.328  0.00  0.00    +0.162 A 
ATOM      2  C   UNL     1     -16.328  -4.014  -2.323  0.00  0.00    +0.162 A 
ATOM      3  C   UNL     1     -17.213  -2.994  -2.663  0.00  0.00    +0.063 A 
ATOM      4  C   UNL     1     -16.732  -1.708  -2.943  0.00  0.00    +0.051 A 
ATOM      5  C   UNL     1     -17.730  -0.635  -3.282  0.00  0.00    +0.260 A 
ATOM      6  O   UNL     1     -18.932  -0.880  -3.320  0.00  0.00    -0.267 OA
ATOM      7  N   UNL     1     -17.208   0.609  -3.539  0.00  0.00    -0.307 N 
ATOM      8  C   UNL     1     -17.948   1.820  -3.887  0.00  0.00    +0.130 C 
ATOM      9  C   UNL     1     -16.896   2.940  -4.069  0.00  0.00    +0.059 C 
ATOM     10  C   UNL     1     -15.609   2.222  -3.797  0.00  0.00    -0.022 A 
ATOM     11  C   UNL     1     -14.311   2.687  -3.805  0.00  0.00    +0.006 A 
ATOM     12  C   UNL     1     -13.287   1.779  -3.506  0.00  0.00    +0.001 A 
ATOM     13  C   UNL     1     -13.568   0.425  -3.204  0.00  0.00    +0.010 A 
ATOM     14  C   UNL     1     -14.883  -0.052  -3.194  0.00  0.00    +0.007 A 
ATOM     15  C   UNL     1     -15.852   0.890  -3.496  0.00  0.00    +0.056 A 
ATOM     16  C   UNL     1     -15.341  -1.420  -2.901  0.00  0.00    +0.000 A 
ATOM     17  C   UNL     1     -14.466  -2.471  -2.585  0.00  0.00    +0.058 A 
ENDROOT
BRANCH   1  18
ATOM     18  O   UNL     1     -14.030  -4.733  -2.051  0.00  0.00    -0.491 OA
ATOM     19  C   UNL     1     -13.010  -4.208  -1.198  0.00  0.00    +0.277 C 
ENDBRANCH   1  18
BRANCH   2  20
ATOM     20  O   UNL     1     -16.893  -5.234  -2.062  0.00  0.00    -0.491 OA
ATOM     21  C   UNL     1     -17.231  -5.416  -0.688  0.00  0.00    +0.277 C 
ENDBRANCH   2  20
TORSDOF 2
ENDMDL
MODEL 2
REMARK VINA RESULT:      -6.5     14.128     16.166
REMARK  Name = min_compound946.pdb
REMARK  4 active torsions:
REMARK  status: ('A' for Active; 'I' for Inactive)
REMARK    1  A    between atoms: _1  and  _3
REMARK    2  A    between atoms: _1  and  _20
REMARK    3  A    between atoms: _2  and  _4
REMARK    4  A    between atoms: _2  and  _21
REMARK                            x       y       z     vdW  Elec       q    Type
REMARK                         _______ _______ _______ _____ _____    ______ ____
ROOT
ATOM      1  C   UNL     1     -12.207   5.976 -17.648  0.00  0.00    +0.162 A 
ATOM      2  C   UNL     1     -13.557   5.998 -17.286  0.00  0.00    +0.162 A 
ATOM      3  C   UNL     1     -14.163   4.826 -16.839  0.00  0.00    +0.063 A 
ATOM      4  C   UNL     1     -13.441   3.625 -16.815  0.00  0.00    +0.051 A 
ATOM      5  C   UNL     1     -14.147   2.382 -16.344  0.00  0.00    +0.260 A 
ATOM      6  O   UNL     1     -15.319   2.419 -15.985  0.00  0.00    -0.267 OA
ATOM      7  N   UNL     1     -13.399   1.230 -16.349  0.00  0.00    -0.307 N 
ATOM      8  C   UNL     1     -13.836  -0.105 -15.948  0.00  0.00    +0.130 C 
ATOM      9  C   UNL     1     -12.620  -1.042 -16.145  0.00  0.00    +0.059 C 
ATOM     10  C   UNL     1     -11.569  -0.105 -16.657  0.00  0.00    -0.022 A 
ATOM     11  C   UNL     1     -10.260  -0.345 -17.017  0.00  0.00    +0.006 A 
ATOM     12  C   UNL     1      -9.494   0.737 -17.471  0.00  0.00    +0.001 A 
ATOM     13  C   UNL     1     -10.041   2.039 -17.560  0.00  0.00    +0.010 A 
ATOM     14  C   UNL     1     -11.369   2.289 -17.196  0.00  0.00    +0.007 A 
ATOM     15  C   UNL     1     -12.075   1.183 -16.755  0.00  0.00    +0.056 A 
ATOM     16  C   UNL     1     -12.083   3.576 -17.229  0.00  0.00    +0.000 A 
ATOM     17  C   UNL     1     -11.486   4.775 -17.648  0.00  0.00    +0.058 A 
ENDROOT
BRANCH   1  18
ATOM     18  O   UNL     1     -11.542   7.105 -18.050  0.00  0.00    -0.491 OA
ATOM     19  C   UNL     1     -11.651   7.256 -19.467  0.00  0.00    +0.277 C 
ENDBRANCH   1  18
BRANCH   2  20
ATOM     20  O   UNL     1     -14.343   7.118 -17.277  0.00  0.00    -0.491 OA
ATOM     21  C   UNL     1     -15.231   7.175 -16.161  0.00  0.00    +0.277 C 
ENDBRANCH   2  20
TORSDOF 2
ENDMDL
MODEL 3
REMARK VINA RESULT:      -6.4     13.158     15.880
REMARK  Name = min_compound946.pdb
REMARK  4 active torsions:
REMARK  status: ('A' for Active; 'I' for Inactive)
REMARK    1  A    between atoms: _1  and  _3
REMARK    2  A    between atoms: _1  and  _20
REMARK    3  A    between atoms: _2  and  _4
REMARK    4  A    between atoms: _2  and  _21
REMARK                            x       y       z     vdW  Elec       q    Type
REMARK                         _______ _______ _______ _____ _____    ______ ____
ROOT
ATOM      1  C   UNL     1     -16.668   7.747 -13.919  0.00  0.00    +0.162 A 
ATOM      2  C   UNL     1     -16.085   8.813 -14.609  0.00  0.00    +0.162 A 
ATOM      3  C   UNL     1     -15.212   8.550 -15.662  0.00  0.00    +0.063 A 
ATOM      4  C   UNL     1     -14.874   7.227 -15.981  0.00  0.00    +0.051 A 
ATOM      5  C   UNL     1     -13.909   6.996 -17.113  0.00  0.00    +0.260 A 
ATOM      6  O   UNL     1     -13.437   7.937 -17.743  0.00  0.00    -0.267 OA
ATOM      7  N   UNL     1     -13.603   5.684 -17.380  0.00  0.00    -0.307 N 
ATOM      8  C   UNL     1     -12.700   5.183 -18.413  0.00  0.00    +0.130 C 
ATOM      9  C   UNL     1     -12.705   3.641 -18.290  0.00  0.00    +0.059 C 
ATOM     10  C   UNL     1     -13.652   3.410 -17.152  0.00  0.00    -0.022 A 
ATOM     11  C   UNL     1     -14.072   2.234 -16.568  0.00  0.00    +0.006 A 
ATOM     12  C   UNL     1     -14.977   2.318 -15.501  0.00  0.00    +0.001 A 
ATOM     13  C   UNL     1     -15.449   3.567 -15.032  0.00  0.00    +0.010 A 
ATOM     14  C   UNL     1     -15.025   4.764 -15.621  0.00  0.00    +0.007 A 
ATOM     15  C   UNL     1     -14.133   4.618 -16.670  0.00  0.00    +0.056 A 
ATOM     16  C   UNL     1     -15.418   6.135 -15.255  0.00  0.00    +0.000 A 
ATOM     17  C   UNL     1     -16.318   6.424 -14.217  0.00  0.00    +0.058 A 
ENDROOT
BRANCH   1  18
ATOM     18  O   UNL     1     -17.571   7.941 -12.905  0.00  0.00    -0.491 OA
ATOM     19  C   UNL     1     -17.637   6.774 -12.082  0.00  0.00    +0.277 C 
ENDBRANCH   1  18
BRANCH   2  20
ATOM     20  O   UNL     1     -16.351  10.134 -14.370  0.00  0.00    -0.491 OA
ATOM     21  C   UNL     1     -16.524  10.900 -15.562  0.00  0.00    +0.277 C 
ENDBRANCH   2  20
TORSDOF 2
ENDMDL
MODEL 4
REMARK VINA RESULT:      -6.4      2.064      2.142
REMARK  Name = min_compound946.pdb
REMARK  4 active torsions:
REMARK  status: ('A' for Active; 'I' for Inactive)
REMARK    1  A    between atoms: _1  and  _3
REMARK    2  A    between atoms: _1  and  _20
REMARK    3  A    between atoms: _2  and  _4
REMARK    4  A    between atoms: _2  and  _21
REMARK                            x       y       z     vdW  Elec       q    Type
REMARK                         _______ _______ _______ _____ _____    ______ ____
ROOT
ATOM      1  C   UNL     1     -14.570  -2.419  -1.728  0.00  0.00    +0.162 A 
ATOM      2  C   UNL     1     -15.717  -2.160  -0.972  0.00  0.00    +0.162 A 
ATOM      3  C   UNL     1     -16.703  -1.326  -1.493  0.00  0.00    +0.063 A 
ATOM      4  C   UNL     1     -16.515  -0.701  -2.734  0.00  0.00    +0.051 A 
ATOM      5  C   UNL     1     -17.600   0.208  -3.242  0.00  0.00    +0.260 A 
ATOM      6  O   UNL     1     -18.624   0.394  -2.593  0.00  0.00    -0.267 OA
ATOM      7  N   UNL     1     -17.362   0.803  -4.457  0.00  0.00    -0.307 N 
ATOM      8  C   UNL     1     -18.241   1.725  -5.173  0.00  0.00    +0.130 C 
ATOM      9  C   UNL     1     -17.508   2.102  -6.483  0.00  0.00    +0.059 C 
ATOM     10  C   UNL     1     -16.233   1.320  -6.376  0.00  0.00    -0.022 A 
ATOM     11  C   UNL     1     -15.164   1.238  -7.243  0.00  0.00    +0.006 A 
ATOM     12  C   UNL     1     -14.087   0.417  -6.881  0.00  0.00    +0.001 A 
ATOM     13  C   UNL     1     -14.091  -0.308  -5.666  0.00  0.00    +0.010 A 
ATOM     14  C   UNL     1     -15.173  -0.229  -4.783  0.00  0.00    +0.007 A 
ATOM     15  C   UNL     1     -16.207   0.597  -5.193  0.00  0.00    +0.056 A 
ATOM     16  C   UNL     1     -15.331  -0.914  -3.489  0.00  0.00    +0.000 A 
ATOM     17  C   UNL     1     -14.364  -1.781  -2.957  0.00  0.00    +0.058 A 
ENDROOT
BRANCH   1  18
ATOM     18  O   UNL     1     -13.586  -3.268  -1.291  0.00  0.00    -0.491 OA
ATOM     19  C   UNL     1     -13.712  -4.535  -1.942  0.00  0.00    +0.277 C 
ENDBRANCH   1  18
BRANCH   2  20
ATOM     20  O   UNL     1     -15.990  -2.720   0.247  0.00  0.00    -0.491 OA
ATOM     21  C   UNL     1     -16.967  -3.758   0.185  0.00  0.00    +0.277 C 
ENDBRANCH   2  20
TORSDOF 2
ENDMDL
MODEL 5
REMARK VINA RESULT:      -6.3      3.224      5.867
REMARK  Name = min_compound946.pdb
REMARK  4 active torsions:
REMARK  status: ('A' for Active; 'I' for Inactive)
REMARK    1  A    between atoms: _1  and  _3
REMARK    2  A    between atoms: _1  and  _20
REMARK    3  A    between atoms: _2  and  _4
REMARK    4  A    between atoms: _2  and  _21
REMARK                            x       y       z     vdW  Elec       q    Type
REMARK                         _______ _______ _______ _____ _____    ______ ____
ROOT
ATOM      1  C   UNL     1     -18.254   1.436  -7.836  0.00  0.00    +0.162 A 
ATOM      2  C   UNL     1     -19.206   0.427  -7.664  0.00  0.00    +0.162 A 
ATOM      3  C   UNL     1     -19.080  -0.454  -6.592  0.00  0.00    +0.063 A 
ATOM      4  C   UNL     1     -17.974  -0.368  -5.736  0.00  0.00    +0.051 A 
ATOM      5  C   UNL     1     -17.873  -1.357  -4.606  0.00  0.00    +0.260 A 
ATOM      6  O   UNL     1     -18.736  -2.211  -4.435  0.00  0.00    -0.267 OA
ATOM      7  N   UNL     1     -16.766  -1.235  -3.802  0.00  0.00    -0.307 N 
ATOM      8  C   UNL     1     -16.422  -2.060  -2.646  0.00  0.00    +0.130 C 
ATOM      9  C   UNL     1     -15.083  -1.513  -2.098  0.00  0.00    +0.059 C 
ATOM     10  C   UNL     1     -14.788  -0.381  -3.036  0.00  0.00    -0.022 A 
ATOM     11  C   UNL     1     -13.727   0.498  -3.065  0.00  0.00    +0.006 A 
ATOM     12  C   UNL     1     -13.709   1.472  -4.072  0.00  0.00    +0.001 A 
ATOM     13  C   UNL     1     -14.744   1.556  -5.033  0.00  0.00    +0.010 A 
ATOM     14  C   UNL     1     -15.824   0.666  -5.009  0.00  0.00    +0.007 A 
ATOM     15  C   UNL     1     -15.788  -0.273  -3.992  0.00  0.00    +0.056 A 
ATOM     16  C   UNL     1     -16.972   0.620  -5.929  0.00  0.00    +0.000 A 
ATOM     17  C   UNL     1     -17.135   1.515  -6.998  0.00  0.00    +0.058 A 
ENDROOT
BRANCH   1  18
ATOM     18  O   UNL     1     -18.349   2.363  -8.842  0.00  0.00    -0.491 OA
ATOM     19  C   UNL     1     -17.068   2.560  -9.445  0.00  0.00    +0.277 C 
ENDBRANCH   1  18
BRANCH   2  20
ATOM     20  O   UNL     1     -20.316   0.261  -8.447  0.00  0.00    -0.491 OA
ATOM     21  C   UNL     1     -21.422  -0.305  -7.744  0.00  0.00    +0.277 C 
ENDBRANCH   2  20
TORSDOF 2
ENDMDL
MODEL 6
REMARK VINA RESULT:      -6.3     13.291     15.877
REMARK  Name = min_compound946.pdb
REMARK  4 active torsions:
REMARK  status: ('A' for Active; 'I' for Inactive)
REMARK    1  A    between atoms: _1  and  _3
REMARK    2  A    between atoms: _1  and  _20
REMARK    3  A    between atoms: _2  and  _4
REMARK    4  A    between atoms: _2  and  _21
REMARK                            x       y       z     vdW  Elec       q    Type
REMARK                         _______ _______ _______ _____ _____    ______ ____
ROOT
ATOM      1  C   UNL     1     -16.009   8.605 -14.571  0.00  0.00    +0.162 A 
ATOM      2  C   UNL     1     -16.636   7.585 -13.850  0.00  0.00    +0.162 A 
ATOM      3  C   UNL     1     -16.340   6.257 -14.148  0.00  0.00    +0.063 A 
ATOM      4  C   UNL     1     -15.472   5.948 -15.204  0.00  0.00    +0.051 A 
ATOM      5  C   UNL     1     -15.202   4.498 -15.500  0.00  0.00    +0.260 A 
ATOM      6  O   UNL     1     -15.721   3.610 -14.833  0.00  0.00    -0.267 OA
ATOM      7  N   UNL     1     -14.352   4.250 -16.550  0.00  0.00    -0.307 N 
ATOM      8  C   UNL     1     -13.926   2.944 -17.048  0.00  0.00    +0.130 C 
ATOM      9  C   UNL     1     -12.977   3.217 -18.240  0.00  0.00    +0.059 C 
ATOM     10  C   UNL     1     -12.955   4.714 -18.300  0.00  0.00    -0.022 A 
ATOM     11  C   UNL     1     -12.283   5.562 -19.154  0.00  0.00    +0.006 A 
ATOM     12  C   UNL     1     -12.452   6.942 -18.978  0.00  0.00    +0.001 A 
ATOM     13  C   UNL     1     -13.285   7.457 -17.956  0.00  0.00    +0.010 A 
ATOM     14  C   UNL     1     -13.969   6.601 -17.085  0.00  0.00    +0.007 A 
ATOM     15  C   UNL     1     -13.764   5.250 -17.308  0.00  0.00    +0.056 A 
ATOM     16  C   UNL     1     -14.867   6.974 -15.980  0.00  0.00    +0.000 A 
ATOM     17  C   UNL     1     -15.158   8.305 -15.642  0.00  0.00    +0.058 A 
ENDROOT
BRANCH   1  18
ATOM     18  O   UNL     1     -16.222   9.930 -14.294  0.00  0.00    -0.491 OA
ATOM     19  C   UNL     1     -16.654  10.611 -15.474  0.00  0.00    +0.277 C 
ENDBRANCH   1  18
BRANCH   2  20
ATOM     20  O   UNL     1     -17.497   7.785 -12.805  0.00  0.00    -0.491 OA
ATOM     21  C   UNL     1     -17.615   6.652 -11.946  0.00  0.00    +0.277 C 
ENDBRANCH   2  20
TORSDOF 2
ENDMDL
MODEL 7
REMARK VINA RESULT:      -6.3      4.656      7.523
REMARK  Name = min_compound946.pdb
REMARK  4 active torsions:
REMARK  status: ('A' for Active; 'I' for Inactive)
REMARK    1  A    between atoms: _1  and  _3
REMARK    2  A    between atoms: _1  and  _20
REMARK    3  A    between atoms: _2  and  _4
REMARK    4  A    between atoms: _2  and  _21
REMARK                            x       y       z     vdW  Elec       q    Type
REMARK                         _______ _______ _______ _____ _____    ______ ____
ROOT
ATOM      1  C   UNL     1     -16.914   2.926  -9.744  0.00  0.00    +0.162 A 
ATOM      2  C   UNL     1     -18.301   2.796  -9.632  0.00  0.00    +0.162 A 
ATOM      3  C   UNL     1     -18.836   2.074  -8.568  0.00  0.00    +0.063 A 
ATOM      4  C   UNL     1     -17.987   1.429  -7.658  0.00  0.00    +0.051 A 
ATOM      5  C   UNL     1     -18.613   0.643  -6.538  0.00  0.00    +0.260 A 
ATOM      6  O   UNL     1     -19.832   0.572  -6.421  0.00  0.00    -0.267 OA
ATOM      7  N   UNL     1     -17.739   0.022  -5.680  0.00  0.00    -0.307 N 
ATOM      8  C   UNL     1     -18.077  -0.799  -4.520  0.00  0.00    +0.130 C 
ATOM      9  C   UNL     1     -16.735  -1.258  -3.901  0.00  0.00    +0.059 C 
ATOM     10  C   UNL     1     -15.726  -0.621  -4.808  0.00  0.00    -0.022 A 
ATOM     11  C   UNL     1     -14.348  -0.659  -4.773  0.00  0.00    +0.006 A 
ATOM     12  C   UNL     1     -13.647   0.040  -5.765  0.00  0.00    +0.001 A 
ATOM     13  C   UNL     1     -14.325   0.764  -6.774  0.00  0.00    +0.010 A 
ATOM     14  C   UNL     1     -15.724   0.807  -6.814  0.00  0.00    +0.007 A 
ATOM     15  C   UNL     1     -16.361   0.098  -5.809  0.00  0.00    +0.056 A 
ATOM     16  C   UNL     1     -16.575   1.508  -7.789  0.00  0.00    +0.000 A 
ATOM     17  C   UNL     1     -16.060   2.266  -8.852  0.00  0.00    +0.058 A 
ENDROOT
BRANCH   1  18
ATOM     18  O   UNL     1     -16.329   3.663 -10.741  0.00  0.00    -0.491 OA
ATOM     19  C   UNL     1     -16.039   4.980 -10.266  0.00  0.00    +0.277 C 
ENDBRANCH   1  18
BRANCH   2  20
ATOM     20  O   UNL     1     -19.209   3.386 -10.470  0.00  0.00    -0.491 OA
ATOM     21  C   UNL     1     -19.909   4.474  -9.867  0.00  0.00    +0.277 C 
ENDBRANCH   2  20
TORSDOF 2
ENDMDL
MODEL 8
REMARK VINA RESULT:      -6.2      4.483      7.191
REMARK  Name = min_compound946.pdb
REMARK  4 active torsions:
REMARK  status: ('A' for Active; 'I' for Inactive)
REMARK    1  A    between atoms: _1  and  _3
REMARK    2  A    between atoms: _1  and  _20
REMARK    3  A    between atoms: _2  and  _4
REMARK    4  A    between atoms: _2  and  _21
REMARK                            x       y       z     vdW  Elec       q    Type
REMARK                         _______ _______ _______ _____ _____    ______ ____
ROOT
ATOM      1  C   UNL     1     -17.641   5.228  -4.181  0.00  0.00    +0.162 A 
ATOM      2  C   UNL     1     -18.524   5.072  -5.254  0.00  0.00    +0.162 A 
ATOM      3  C   UNL     1     -18.432   3.935  -6.054  0.00  0.00    +0.063 A 
ATOM      4  C   UNL     1     -17.422   2.991  -5.822  0.00  0.00    +0.051 A 
ATOM      5  C   UNL     1     -17.351   1.792  -6.728  0.00  0.00    +0.260 A 
ATOM      6  O   UNL     1     -18.158   1.640  -7.639  0.00  0.00    -0.267 OA
ATOM      7  N   UNL     1     -16.338   0.902  -6.466  0.00  0.00    -0.307 N 
ATOM      8  C   UNL     1     -16.043  -0.334  -7.186  0.00  0.00    +0.130 C 
ATOM      9  C   UNL     1     -14.807  -0.960  -6.496  0.00  0.00    +0.059 C 
ATOM     10  C   UNL     1     -14.514   0.024  -5.404  0.00  0.00    -0.022 A 
ATOM     11  C   UNL     1     -13.526   0.018  -4.443  0.00  0.00    +0.006 A 
ATOM     12  C   UNL     1     -13.487   1.085  -3.535  0.00  0.00    +0.001 A 
ATOM     13  C   UNL     1     -14.430   2.138  -3.597  0.00  0.00    +0.010 A 
ATOM     14  C   UNL     1     -15.436   2.149  -4.570  0.00  0.00    +0.007 A 
ATOM     15  C   UNL     1     -15.424   1.070  -5.438  0.00  0.00    +0.056 A 
ATOM     16  C   UNL     1     -16.485   3.162  -4.768  0.00  0.00    +0.000 A 
ATOM     17  C   UNL     1     -16.615   4.301  -3.958  0.00  0.00    +0.058 A 
ENDROOT
BRANCH   1  18
ATOM     18  O   UNL     1     -17.711   6.300  -3.329  0.00  0.00    -0.491 OA
ATOM     19  C   UNL     1     -16.600   7.171  -3.550  0.00  0.00    +0.277 C 
ENDBRANCH   1  18
BRANCH   2  20
ATOM     20  O   UNL     1     -19.539   5.937  -5.560  0.00  0.00    -0.491 OA
ATOM     21  C   UNL     1     -20.104   5.710  -6.850  0.00  0.00    +0.277 C 
ENDBRANCH   2  20
TORSDOF 2
ENDMDL
MODEL 9
REMARK VINA RESULT:      -5.9      1.560      3.558
REMARK  Name = min_compound946.pdb
REMARK  4 active torsions:
REMARK  status: ('A' for Active; 'I' for Inactive)
REMARK    1  A    between atoms: _1  and  _3
REMARK    2  A    between atoms: _1  and  _20
REMARK    3  A    between atoms: _2  and  _4
REMARK    4  A    between atoms: _2  and  _21
REMARK                            x       y       z     vdW  Elec       q    Type
REMARK                         _______ _______ _______ _____ _____    ______ ____
ROOT
ATOM      1  C   UNL     1     -18.532  -3.020  -2.967  0.00  0.00    +0.162 A 
ATOM      2  C   UNL     1     -17.435  -3.751  -2.501  0.00  0.00    +0.162 A 
ATOM      3  C   UNL     1     -16.197  -3.124  -2.382  0.00  0.00    +0.063 A 
ATOM      4  C   UNL     1     -16.041  -1.791  -2.788  0.00  0.00    +0.051 A 
ATOM      5  C   UNL     1     -14.679  -1.166  -2.660  0.00  0.00    +0.260 A 
ATOM      6  O   UNL     1     -13.732  -1.801  -2.208  0.00  0.00    -0.267 OA
ATOM      7  N   UNL     1     -14.577   0.138  -3.081  0.00  0.00    -0.307 N 
ATOM      8  C   UNL     1     -13.380   0.975  -3.070  0.00  0.00    +0.130 C 
ATOM      9  C   UNL     1     -13.800   2.349  -3.646  0.00  0.00    +0.059 C 
ATOM     10  C   UNL     1     -15.256   2.146  -3.937  0.00  0.00    -0.022 A 
ATOM     11  C   UNL     1     -16.188   3.014  -4.464  0.00  0.00    +0.006 A 
ATOM     12  C   UNL     1     -17.499   2.548  -4.630  0.00  0.00    +0.001 A 
ATOM     13  C   UNL     1     -17.862   1.228  -4.270  0.00  0.00    +0.010 A 
ATOM     14  C   UNL     1     -16.920   0.343  -3.734  0.00  0.00    +0.007 A 
ATOM     15  C   UNL     1     -15.643   0.859  -3.593  0.00  0.00    +0.056 A 
ATOM     16  C   UNL     1     -17.134  -1.051  -3.312  0.00  0.00    +0.000 A 
ATOM     17  C   UNL     1     -18.379  -1.696  -3.395  0.00  0.00    +0.058 A 
ENDROOT
BRANCH   1  18
ATOM     18  O   UNL     1     -19.785  -3.567  -3.061  0.00  0.00    -0.491 OA
ATOM     19  C   UNL     1     -20.721  -2.767  -2.335  0.00  0.00    +0.277 C 
ENDBRANCH   1  18
BRANCH   2  20
ATOM     20  O   UNL     1     -17.487  -5.054  -2.083  0.00  0.00    -0.491 OA
ATOM     21  C   UNL     1     -16.204  -5.673  -2.006  0.00  0.00    +0.277 C 
ENDBRANCH   2  20
TORSDOF 2
ENDMDL
