MODEL 1
REMARK VINA RESULT:      -6.9      0.000      0.000
REMARK  Name = min_compound929.pdb
REMARK  4 active torsions:
REMARK  status: ('A' for Active; 'I' for Inactive)
REMARK    1  A    between atoms: _1  and  _3
REMARK    2  A    between atoms: _1  and  _14
REMARK    3  A    between atoms: _6  and  _8
REMARK    4  A    between atoms: _13  and  _17
REMARK                            x       y       z     vdW  Elec       q    Type
REMARK                         _______ _______ _______ _____ _____    ______ ____
ROOT
ATOM      1  C   UNL     1     -16.101   6.109 -12.535  0.00  0.00    +0.279 C 
ATOM      2  N   UNL     1     -15.284   5.159 -13.084  0.00  0.00    -0.231 N 
ATOM      3  H   UNL     1     -15.241   4.322 -12.527  0.00  0.00    +0.160 HD
ATOM      4  C   UNL     1     -15.194   4.956 -14.449  0.00  0.00    +0.313 C 
ATOM      5  N   UNL     1     -14.293   3.937 -14.729  0.00  0.00    -0.236 N 
ATOM      6  H   UNL     1     -13.530   3.865 -14.078  0.00  0.00    +0.159 HD
ATOM      7  C   UNL     1     -14.142   3.349 -15.973  0.00  0.00    +0.251 C 
ATOM      8  O   UNL     1     -14.936   3.421 -16.901  0.00  0.00    -0.270 OA
ATOM      9  O   UNL     1     -15.801   5.606 -15.285  0.00  0.00    -0.252 OA
ATOM     10  O   UNL     1     -16.313   7.246 -12.917  0.00  0.00    -0.263 OA
ENDROOT
BRANCH   7  11
ATOM     11  C   UNL     1     -12.932   2.493 -16.150  0.00  0.00    +0.038 A 
ATOM     12  C   UNL     1     -11.687   2.837 -15.606  0.00  0.00    +0.019 A 
ATOM     13  C   UNL     1     -10.593   1.974 -15.751  0.00  0.00    +0.085 A 
ATOM     14  C   UNL     1     -10.749   0.758 -16.436  0.00  0.00    +0.273 A 
ATOM     15  C   UNL     1     -11.991   0.405 -16.979  0.00  0.00    +0.085 A 
ATOM     16  C   UNL     1     -13.079   1.273 -16.829  0.00  0.00    +0.019 A 
BRANCH  14  17
ATOM     17  N   UNL     1      -9.607  -0.156 -16.566  0.00  0.00    +0.080 N 
ATOM     18  O   UNL     1      -9.464  -1.022 -15.690  0.00  0.00    +0.041 OA
ATOM     19  O   UNL     1      -8.857  -0.008 -17.540  0.00  0.00    -0.576 OA
ENDBRANCH  14  17
ENDBRANCH   7  11
BRANCH   1  20
ATOM     20  S   UNL     1     -16.657   5.521 -10.986  0.00  0.00    -0.071 S 
ATOM     21  C   UNL     1     -15.672   4.445 -10.636  0.00  0.00    +0.094 C 
ENDBRANCH   1  20
TORSDOF 3
ENDMDL
MODEL 2
REMARK VINA RESULT:      -6.0      1.721      2.128
REMARK  Name = min_compound929.pdb
REMARK  4 active torsions:
REMARK  status: ('A' for Active; 'I' for Inactive)
REMARK    1  A    between atoms: _1  and  _3
REMARK    2  A    between atoms: _1  and  _14
REMARK    3  A    between atoms: _6  and  _8
REMARK    4  A    between atoms: _13  and  _17
REMARK                            x       y       z     vdW  Elec       q    Type
REMARK                         _______ _______ _______ _____ _____    ______ ____
ROOT
ATOM      1  C   UNL     1     -16.030   4.919 -10.171  0.00  0.00    +0.279 C 
ATOM      2  N   UNL     1     -15.417   4.321 -11.237  0.00  0.00    -0.231 N 
ATOM      3  H   UNL     1     -15.586   3.329 -11.269  0.00  0.00    +0.160 HD
ATOM      4  C   UNL     1     -15.312   4.934 -12.472  0.00  0.00    +0.313 C 
ATOM      5  N   UNL     1     -14.646   4.108 -13.368  0.00  0.00    -0.236 N 
ATOM      6  H   UNL     1     -13.947   3.517 -12.949  0.00  0.00    +0.159 HD
ATOM      7  C   UNL     1     -14.570   4.334 -14.731  0.00  0.00    +0.251 C 
ATOM      8  O   UNL     1     -15.286   5.092 -15.372  0.00  0.00    -0.270 OA
ATOM      9  O   UNL     1     -15.723   6.056 -12.723  0.00  0.00    -0.252 OA
ATOM     10  O   UNL     1     -15.970   6.080  -9.809  0.00  0.00    -0.263 OA
ENDROOT
BRANCH   7  11
ATOM     11  C   UNL     1     -13.572   3.514 -15.478  0.00  0.00    +0.038 A 
ATOM     12  C   UNL     1     -12.223   3.885 -15.574  0.00  0.00    +0.019 A 
ATOM     13  C   UNL     1     -11.311   3.054 -16.239  0.00  0.00    +0.085 A 
ATOM     14  C   UNL     1     -11.750   1.844 -16.800  0.00  0.00    +0.273 A 
ATOM     15  C   UNL     1     -13.095   1.465 -16.704  0.00  0.00    +0.085 A 
ATOM     16  C   UNL     1     -13.999   2.300 -16.039  0.00  0.00    +0.019 A 
BRANCH  14  17
ATOM     17  N   UNL     1     -10.787   0.964 -17.474  0.00  0.00    +0.080 N 
ATOM     18  O   UNL     1     -11.190  -0.149 -17.844  0.00  0.00    +0.041 OA
ATOM     19  O   UNL     1      -9.633   1.384 -17.633  0.00  0.00    -0.576 OA
ENDBRANCH  14  17
ENDBRANCH   7  11
BRANCH   1  20
ATOM     20  S   UNL     1     -16.772   3.671  -9.198  0.00  0.00    -0.071 S 
ATOM     21  C   UNL     1     -17.785   4.411  -8.376  0.00  0.00    +0.094 C 
ENDBRANCH   1  20
TORSDOF 3
ENDMDL
MODEL 3
REMARK VINA RESULT:      -6.0      2.886      3.086
REMARK  Name = min_compound929.pdb
REMARK  4 active torsions:
REMARK  status: ('A' for Active; 'I' for Inactive)
REMARK    1  A    between atoms: _1  and  _3
REMARK    2  A    between atoms: _1  and  _14
REMARK    3  A    between atoms: _6  and  _8
REMARK    4  A    between atoms: _13  and  _17
REMARK                            x       y       z     vdW  Elec       q    Type
REMARK                         _______ _______ _______ _____ _____    ______ ____
ROOT
ATOM      1  C   UNL     1     -15.738   7.849 -16.289  0.00  0.00    +0.279 C 
ATOM      2  N   UNL     1     -15.065   6.661 -16.373  0.00  0.00    -0.231 N 
ATOM      3  H   UNL     1     -15.687   5.870 -16.410  0.00  0.00    +0.160 HD
ATOM      4  C   UNL     1     -13.898   6.519 -17.100  0.00  0.00    +0.313 C 
ATOM      5  N   UNL     1     -13.427   5.215 -17.012  0.00  0.00    -0.236 N 
ATOM      6  H   UNL     1     -13.629   4.757 -16.139  0.00  0.00    +0.159 HD
ATOM      7  C   UNL     1     -12.410   4.698 -17.795  0.00  0.00    +0.251 C 
ATOM      8  O   UNL     1     -11.987   5.185 -18.834  0.00  0.00    -0.270 OA
ATOM      9  O   UNL     1     -13.347   7.424 -17.706  0.00  0.00    -0.252 OA
ATOM     10  O   UNL     1     -15.288   8.973 -16.160  0.00  0.00    -0.263 OA
ENDROOT
BRANCH   7  11
ATOM     11  C   UNL     1     -11.846   3.388 -17.355  0.00  0.00    +0.038 A 
ATOM     12  C   UNL     1     -10.967   3.280 -16.267  0.00  0.00    +0.019 A 
ATOM     13  C   UNL     1     -10.508   2.021 -15.857  0.00  0.00    +0.085 A 
ATOM     14  C   UNL     1     -10.937   0.867 -16.531  0.00  0.00    +0.273 A 
ATOM     15  C   UNL     1     -11.818   0.967 -17.616  0.00  0.00    +0.085 A 
ATOM     16  C   UNL     1     -12.272   2.227 -18.020  0.00  0.00    +0.019 A 
BRANCH  14  17
ATOM     17  N   UNL     1     -10.473  -0.452 -16.083  0.00  0.00    +0.080 N 
ATOM     18  O   UNL     1      -9.256  -0.601 -15.903  0.00  0.00    +0.041 OA
ATOM     19  O   UNL     1     -11.324  -1.337 -15.914  0.00  0.00    -0.576 OA
ENDBRANCH  14  17
ENDBRANCH   7  11
BRANCH   1  20
ATOM     20  S   UNL     1     -17.445   7.500 -16.150  0.00  0.00    -0.071 S 
ATOM     21  C   UNL     1     -17.584   6.932 -14.768  0.00  0.00    +0.094 C 
ENDBRANCH   1  20
TORSDOF 3
ENDMDL
MODEL 4
REMARK VINA RESULT:      -6.0      2.978      3.724
REMARK  Name = min_compound929.pdb
REMARK  4 active torsions:
REMARK  status: ('A' for Active; 'I' for Inactive)
REMARK    1  A    between atoms: _1  and  _3
REMARK    2  A    between atoms: _1  and  _14
REMARK    3  A    between atoms: _6  and  _8
REMARK    4  A    between atoms: _13  and  _17
REMARK                            x       y       z     vdW  Elec       q    Type
REMARK                         _______ _______ _______ _____ _____    ______ ____
ROOT
ATOM      1  C   UNL     1     -16.850   6.529 -18.173  0.00  0.00    +0.279 C 
ATOM      2  N   UNL     1     -15.753   5.752 -17.922  0.00  0.00    -0.231 N 
ATOM      3  H   UNL     1     -14.904   6.159 -18.281  0.00  0.00    +0.160 HD
ATOM      4  C   UNL     1     -15.604   5.035 -16.749  0.00  0.00    +0.313 C 
ATOM      5  N   UNL     1     -14.404   4.335 -16.757  0.00  0.00    -0.236 N 
ATOM      6  H   UNL     1     -14.106   4.030 -17.669  0.00  0.00    +0.159 HD
ATOM      7  C   UNL     1     -13.862   3.703 -15.653  0.00  0.00    +0.251 C 
ATOM      8  O   UNL     1     -14.181   3.896 -14.488  0.00  0.00    -0.270 OA
ATOM      9  O   UNL     1     -16.429   5.003 -15.850  0.00  0.00    -0.252 OA
ATOM     10  O   UNL     1     -18.021   6.295 -17.936  0.00  0.00    -0.263 OA
ENDROOT
BRANCH   7  11
ATOM     11  C   UNL     1     -12.736   2.761 -15.924  0.00  0.00    +0.038 A 
ATOM     12  C   UNL     1     -11.417   3.042 -15.537  0.00  0.00    +0.019 A 
ATOM     13  C   UNL     1     -10.403   2.103 -15.763  0.00  0.00    +0.085 A 
ATOM     14  C   UNL     1     -10.711   0.875 -16.370  0.00  0.00    +0.273 A 
ATOM     15  C   UNL     1     -12.026   0.586 -16.756  0.00  0.00    +0.085 A 
ATOM     16  C   UNL     1     -13.033   1.529 -16.527  0.00  0.00    +0.019 A 
BRANCH  14  17
ATOM     17  N   UNL     1      -9.650  -0.118 -16.584  0.00  0.00    +0.080 N 
ATOM     18  O   UNL     1      -8.927   0.021 -17.582  0.00  0.00    +0.041 OA
ATOM     19  O   UNL     1      -9.540  -1.033 -15.757  0.00  0.00    -0.576 OA
ENDBRANCH  14  17
ENDBRANCH   7  11
BRANCH   1  20
ATOM     20  S   UNL     1     -16.344   7.887 -19.151  0.00  0.00    -0.071 S 
ATOM     21  C   UNL     1     -16.169   8.998 -18.158  0.00  0.00    +0.094 C 
ENDBRANCH   1  20
TORSDOF 3
ENDMDL
MODEL 5
REMARK VINA RESULT:      -6.0     12.179     14.977
REMARK  Name = min_compound929.pdb
REMARK  4 active torsions:
REMARK  status: ('A' for Active; 'I' for Inactive)
REMARK    1  A    between atoms: _1  and  _3
REMARK    2  A    between atoms: _1  and  _14
REMARK    3  A    between atoms: _6  and  _8
REMARK    4  A    between atoms: _13  and  _17
REMARK                            x       y       z     vdW  Elec       q    Type
REMARK                         _______ _______ _______ _____ _____    ______ ____
ROOT
ATOM      1  C   UNL     1     -15.491  -6.573  -2.195  0.00  0.00    +0.279 C 
ATOM      2  N   UNL     1     -15.639  -5.225  -2.373  0.00  0.00    -0.231 N 
ATOM      3  H   UNL     1     -16.516  -4.885  -2.015  0.00  0.00    +0.160 HD
ATOM      4  C   UNL     1     -14.581  -4.342  -2.260  0.00  0.00    +0.313 C 
ATOM      5  N   UNL     1     -15.010  -3.040  -2.491  0.00  0.00    -0.236 N 
ATOM      6  H   UNL     1     -15.767  -2.963  -3.149  0.00  0.00    +0.159 HD
ATOM      7  C   UNL     1     -14.249  -1.912  -2.242  0.00  0.00    +0.251 C 
ATOM      8  O   UNL     1     -13.248  -1.863  -1.540  0.00  0.00    -0.270 OA
ATOM      9  O   UNL     1     -13.430  -4.669  -2.021  0.00  0.00    -0.252 OA
ATOM     10  O   UNL     1     -14.588  -7.298  -2.571  0.00  0.00    -0.263 OA
ENDROOT
BRANCH   7  11
ATOM     11  C   UNL     1     -14.757  -0.637  -2.827  0.00  0.00    +0.038 A 
ATOM     12  C   UNL     1     -16.121  -0.412  -3.060  0.00  0.00    +0.019 A 
ATOM     13  C   UNL     1     -16.555   0.822  -3.559  0.00  0.00    +0.085 A 
ATOM     14  C   UNL     1     -15.622   1.839  -3.818  0.00  0.00    +0.273 A 
ATOM     15  C   UNL     1     -14.258   1.624  -3.584  0.00  0.00    +0.085 A 
ATOM     16  C   UNL     1     -13.832   0.388  -3.085  0.00  0.00    +0.019 A 
BRANCH  14  17
ATOM     17  N   UNL     1     -16.083   3.140  -4.318  0.00  0.00    +0.080 N 
ATOM     18  O   UNL     1     -15.610   4.157  -3.790  0.00  0.00    +0.041 OA
ATOM     19  O   UNL     1     -16.915   3.145  -5.235  0.00  0.00    -0.576 OA
ENDBRANCH  14  17
ENDBRANCH   7  11
BRANCH   1  20
ATOM     20  S   UNL     1     -16.974  -7.199  -1.514  0.00  0.00    -0.071 S 
ATOM     21  C   UNL     1     -17.016  -6.604  -0.138  0.00  0.00    +0.094 C 
ENDBRANCH   1  20
TORSDOF 3
ENDMDL
MODEL 6
REMARK VINA RESULT:      -5.8     11.118     13.655
REMARK  Name = min_compound929.pdb
REMARK  4 active torsions:
REMARK  status: ('A' for Active; 'I' for Inactive)
REMARK    1  A    between atoms: _1  and  _3
REMARK    2  A    between atoms: _1  and  _14
REMARK    3  A    between atoms: _6  and  _8
REMARK    4  A    between atoms: _13  and  _17
REMARK                            x       y       z     vdW  Elec       q    Type
REMARK                         _______ _______ _______ _____ _____    ______ ____
ROOT
ATOM      1  C   UNL     1     -14.497  -6.042  -1.496  0.00  0.00    +0.279 C 
ATOM      2  N   UNL     1     -14.866  -5.013  -2.319  0.00  0.00    -0.231 N 
ATOM      3  H   UNL     1     -15.859  -4.993  -2.486  0.00  0.00    +0.160 HD
ATOM      4  C   UNL     1     -14.257  -3.773  -2.274  0.00  0.00    +0.313 C 
ATOM      5  N   UNL     1     -14.823  -2.921  -3.215  0.00  0.00    -0.236 N 
ATOM      6  H   UNL     1     -15.151  -3.380  -4.048  0.00  0.00    +0.159 HD
ATOM      7  C   UNL     1     -14.590  -1.559  -3.275  0.00  0.00    +0.251 C 
ATOM      8  O   UNL     1     -14.111  -0.874  -2.381  0.00  0.00    -0.270 OA
ATOM      9  O   UNL     1     -13.332  -3.483  -1.532  0.00  0.00    -0.252 OA
ATOM     10  O   UNL     1     -13.379  -6.384  -1.157  0.00  0.00    -0.263 OA
ENDROOT
BRANCH   7  11
ATOM     11  C   UNL     1     -15.041  -0.870  -4.520  0.00  0.00    +0.038 A 
ATOM     12  C   UNL     1     -16.398  -0.681  -4.819  0.00  0.00    +0.019 A 
ATOM     13  C   UNL     1     -16.772   0.020  -5.973  0.00  0.00    +0.085 A 
ATOM     14  C   UNL     1     -15.785   0.542  -6.823  0.00  0.00    +0.273 A 
ATOM     15  C   UNL     1     -14.427   0.362  -6.529  0.00  0.00    +0.085 A 
ATOM     16  C   UNL     1     -14.062  -0.340  -5.375  0.00  0.00    +0.019 A 
BRANCH  14  17
ATOM     17  N   UNL     1     -16.180   1.299  -8.019  0.00  0.00    +0.080 N 
ATOM     18  O   UNL     1     -17.195   0.924  -8.625  0.00  0.00    +0.041 OA
ATOM     19  O   UNL     1     -15.477   2.263  -8.351  0.00  0.00    -0.576 OA
ENDBRANCH  14  17
ENDBRANCH   7  11
BRANCH   1  20
ATOM     20  S   UNL     1     -15.916  -7.006  -1.158  0.00  0.00    -0.071 S 
ATOM     21  C   UNL     1     -16.961  -6.438  -2.072  0.00  0.00    +0.094 C 
ENDBRANCH   1  20
TORSDOF 3
ENDMDL
MODEL 7
REMARK VINA RESULT:      -5.6      4.093      4.645
REMARK  Name = min_compound929.pdb
REMARK  4 active torsions:
REMARK  status: ('A' for Active; 'I' for Inactive)
REMARK    1  A    between atoms: _1  and  _3
REMARK    2  A    between atoms: _1  and  _14
REMARK    3  A    between atoms: _6  and  _8
REMARK    4  A    between atoms: _13  and  _17
REMARK                            x       y       z     vdW  Elec       q    Type
REMARK                         _______ _______ _______ _____ _____    ______ ____
ROOT
ATOM      1  C   UNL     1     -16.289   7.539 -18.911  0.00  0.00    +0.279 C 
ATOM      2  N   UNL     1     -15.417   6.516 -18.658  0.00  0.00    -0.231 N 
ATOM      3  H   UNL     1     -15.380   5.849 -19.411  0.00  0.00    +0.160 HD
ATOM      4  C   UNL     1     -14.221   6.709 -17.991  0.00  0.00    +0.313 C 
ATOM      5  N   UNL     1     -13.535   5.507 -17.869  0.00  0.00    -0.236 N 
ATOM      6  H   UNL     1     -14.126   4.697 -17.785  0.00  0.00    +0.159 HD
ATOM      7  C   UNL     1     -12.221   5.397 -17.450  0.00  0.00    +0.251 C 
ATOM      8  O   UNL     1     -11.404   6.307 -17.406  0.00  0.00    -0.270 OA
ATOM      9  O   UNL     1     -13.843   7.781 -17.547  0.00  0.00    -0.252 OA
ATOM     10  O   UNL     1     -16.615   8.460 -18.185  0.00  0.00    -0.263 OA
ENDROOT
BRANCH   7  11
ATOM     11  C   UNL     1     -11.757   4.023 -17.099  0.00  0.00    +0.038 A 
ATOM     12  C   UNL     1     -10.949   3.770 -15.981  0.00  0.00    +0.019 A 
ATOM     13  C   UNL     1     -10.585   2.456 -15.659  0.00  0.00    +0.085 A 
ATOM     14  C   UNL     1     -11.040   1.392 -16.453  0.00  0.00    +0.273 A 
ATOM     15  C   UNL     1     -11.851   1.635 -17.569  0.00  0.00    +0.085 A 
ATOM     16  C   UNL     1     -12.210   2.950 -17.884  0.00  0.00    +0.019 A 
BRANCH  14  17
ATOM     17  N   UNL     1     -10.677   0.013 -16.099  0.00  0.00    +0.080 N 
ATOM     18  O   UNL     1      -9.548  -0.178 -15.623  0.00  0.00    +0.041 OA
ATOM     19  O   UNL     1     -11.517  -0.875 -16.298  0.00  0.00    -0.576 OA
ENDBRANCH  14  17
ENDBRANCH   7  11
BRANCH   1  20
ATOM     20  S   UNL     1     -17.102   7.201 -20.421  0.00  0.00    -0.071 S 
ATOM     21  C   UNL     1     -16.169   6.264 -21.129  0.00  0.00    +0.094 C 
ENDBRANCH   1  20
TORSDOF 3
ENDMDL
MODEL 8
REMARK VINA RESULT:      -5.6      4.089      7.289
REMARK  Name = min_compound929.pdb
REMARK  4 active torsions:
REMARK  status: ('A' for Active; 'I' for Inactive)
REMARK    1  A    between atoms: _1  and  _3
REMARK    2  A    between atoms: _1  and  _14
REMARK    3  A    between atoms: _6  and  _8
REMARK    4  A    between atoms: _13  and  _17
REMARK                            x       y       z     vdW  Elec       q    Type
REMARK                         _______ _______ _______ _____ _____    ______ ____
ROOT
ATOM      1  C   UNL     1     -12.768   5.362 -17.931  0.00  0.00    +0.279 C 
ATOM      2  N   UNL     1     -13.460   5.284 -16.754  0.00  0.00    -0.231 N 
ATOM      3  H   UNL     1     -13.913   6.151 -16.517  0.00  0.00    +0.160 HD
ATOM      4  C   UNL     1     -14.144   4.146 -16.369  0.00  0.00    +0.313 C 
ATOM      5  N   UNL     1     -14.753   4.339 -15.136  0.00  0.00    -0.236 N 
ATOM      6  H   UNL     1     -14.253   4.957 -14.517  0.00  0.00    +0.159 HD
ATOM      7  C   UNL     1     -15.682   3.479 -14.581  0.00  0.00    +0.251 C 
ATOM      8  O   UNL     1     -16.306   2.613 -15.180  0.00  0.00    -0.270 OA
ATOM      9  O   UNL     1     -14.178   3.109 -17.014  0.00  0.00    -0.252 OA
ATOM     10  O   UNL     1     -12.062   4.521 -18.459  0.00  0.00    -0.263 OA
ENDROOT
BRANCH   7  11
ATOM     11  C   UNL     1     -15.995   3.693 -13.137  0.00  0.00    +0.038 A 
ATOM     12  C   UNL     1     -17.043   3.021 -12.491  0.00  0.00    +0.019 A 
ATOM     13  C   UNL     1     -17.262   3.214 -11.121  0.00  0.00    +0.085 A 
ATOM     14  C   UNL     1     -16.425   4.074 -10.394  0.00  0.00    +0.273 A 
ATOM     15  C   UNL     1     -15.374   4.746 -11.031  0.00  0.00    +0.085 A 
ATOM     16  C   UNL     1     -15.161   4.549 -12.399  0.00  0.00    +0.019 A 
BRANCH  14  17
ATOM     17  N   UNL     1     -16.642   4.255  -8.952  0.00  0.00    +0.080 N 
ATOM     18  O   UNL     1     -16.821   3.237  -8.268  0.00  0.00    +0.041 OA
ATOM     19  O   UNL     1     -16.635   5.411  -8.508  0.00  0.00    -0.576 OA
ENDBRANCH  14  17
ENDBRANCH   7  11
BRANCH   1  20
ATOM     20  S   UNL     1     -12.846   7.013 -18.502  0.00  0.00    -0.071 S 
ATOM     21  C   UNL     1     -14.001   7.599 -17.745  0.00  0.00    +0.094 C 
ENDBRANCH   1  20
TORSDOF 3
ENDMDL
MODEL 9
REMARK VINA RESULT:      -5.6      2.235      2.783
REMARK  Name = min_compound929.pdb
REMARK  4 active torsions:
REMARK  status: ('A' for Active; 'I' for Inactive)
REMARK    1  A    between atoms: _1  and  _3
REMARK    2  A    between atoms: _1  and  _14
REMARK    3  A    between atoms: _6  and  _8
REMARK    4  A    between atoms: _13  and  _17
REMARK                            x       y       z     vdW  Elec       q    Type
REMARK                         _______ _______ _______ _____ _____    ______ ____
ROOT
ATOM      1  C   UNL     1     -17.583   6.510 -14.988  0.00  0.00    +0.279 C 
ATOM      2  N   UNL     1     -16.670   5.527 -15.254  0.00  0.00    -0.231 N 
ATOM      3  H   UNL     1     -17.093   4.711 -15.665  0.00  0.00    +0.160 HD
ATOM      4  C   UNL     1     -15.389   5.804 -15.697  0.00  0.00    +0.313 C 
ATOM      5  N   UNL     1     -14.676   4.627 -15.886  0.00  0.00    -0.236 N 
ATOM      6  H   UNL     1     -14.927   3.883 -15.257  0.00  0.00    +0.159 HD
ATOM      7  C   UNL     1     -13.451   4.551 -16.525  0.00  0.00    +0.251 C 
ATOM      8  O   UNL     1     -12.965   5.410 -17.248  0.00  0.00    -0.270 OA
ATOM      9  O   UNL     1     -14.945   6.929 -15.867  0.00  0.00    -0.252 OA
ATOM     10  O   UNL     1     -17.411   7.581 -14.435  0.00  0.00    -0.263 OA
ENDROOT
BRANCH   7  11
ATOM     11  C   UNL     1     -12.709   3.266 -16.368  0.00  0.00    +0.038 A 
ATOM     12  C   UNL     1     -13.271   2.030 -16.720  0.00  0.00    +0.019 A 
ATOM     13  C   UNL     1     -12.515   0.856 -16.607  0.00  0.00    +0.085 A 
ATOM     14  C   UNL     1     -11.190   0.920 -16.149  0.00  0.00    +0.273 A 
ATOM     15  C   UNL     1     -10.620   2.151 -15.799  0.00  0.00    +0.085 A 
ATOM     16  C   UNL     1     -11.381   3.319 -15.914  0.00  0.00    +0.019 A 
BRANCH  14  17
ATOM     17  N   UNL     1     -10.392  -0.309 -16.055  0.00  0.00    +0.080 N 
ATOM     18  O   UNL     1      -9.165  -0.208 -16.198  0.00  0.00    +0.041 OA
ATOM     19  O   UNL     1     -10.991  -1.372 -15.839  0.00  0.00    -0.576 OA
ENDBRANCH  14  17
ENDBRANCH   7  11
BRANCH   1  20
ATOM     20  S   UNL     1     -19.175   5.890 -15.359  0.00  0.00    -0.071 S 
ATOM     21  C   UNL     1     -19.016   5.289 -16.725  0.00  0.00    +0.094 C 
ENDBRANCH   1  20
TORSDOF 3
ENDMDL
