MODEL 1
REMARK VINA RESULT:      -7.2      0.000      0.000
REMARK  Name = min_compound986.pdb
REMARK  4 active torsions:
REMARK  status: ('A' for Active; 'I' for Inactive)
REMARK    1  A    between atoms: _3  and  _16
REMARK    2  A    between atoms: _9  and  _17
REMARK    3  A    between atoms: _14  and  _21
REMARK    4  A    between atoms: _15  and  _18
REMARK                            x       y       z     vdW  Elec       q    Type
REMARK                         _______ _______ _______ _____ _____    ______ ____
ROOT
ATOM      1  C   UNL     1     -18.642   6.170  -8.146  0.00  0.00    +0.002 A 
ATOM      2  C   UNL     1     -18.099   5.728  -6.940  0.00  0.00    +0.026 A 
ATOM      3  C   UNL     1     -17.552   4.434  -6.893  0.00  0.00    +0.050 A 
ATOM      4  N   UNL     1     -17.009   3.718  -5.836  0.00  0.00    -0.342 N 
ATOM      5  C   UNL     1     -17.244   4.100  -4.459  0.00  0.00    +0.149 C 
ATOM      6  C   UNL     1     -16.436   2.523  -6.262  0.00  0.00    +0.061 A 
ATOM      7  C   UNL     1     -15.596   1.524  -5.594  0.00  0.00    +0.051 A 
ATOM      8  C   UNL     1     -14.897   1.748  -4.341  0.00  0.00    +0.127 A 
ATOM      9  C   UNL     1     -14.241   0.608  -3.845  0.00  0.00    +0.049 A 
ATOM     10  C   UNL     1     -14.203  -0.639  -4.496  0.00  0.00    +0.049 A 
ATOM     11  C   UNL     1     -14.788  -0.888  -5.743  0.00  0.00    +0.125 A 
ATOM     12  C   UNL     1     -15.473   0.247  -6.295  0.00  0.00    +0.029 A 
ATOM     13  C   UNL     1     -16.029   0.119  -7.577  0.00  0.00    +0.013 A 
ATOM     14  C   UNL     1     -16.688   1.153  -8.236  0.00  0.00    +0.011 A 
ATOM     15  C   UNL     1     -16.907   2.368  -7.575  0.00  0.00    +0.009 A 
ATOM     16  C   UNL     1     -17.538   3.591  -7.996  0.00  0.00    +0.011 A 
ATOM     17  C   UNL     1     -18.101   4.043  -9.223  0.00  0.00    -0.041 A 
ATOM     18  C   UNL     1     -18.077   3.167 -10.441  0.00  0.00    +0.044 C 
ATOM     19  C   UNL     1     -18.648   5.346  -9.265  0.00  0.00    +0.004 A 
ENDROOT
BRANCH  11  20
ATOM     20  O   UNL     1     -14.680  -2.051  -6.289  0.00  0.00    -0.506 OA
ATOM     21  H   UNL     1     -15.002  -2.193  -7.158  0.00  0.00    +0.292 HD
ENDBRANCH  11  20
BRANCH   8  22
ATOM     22  O   UNL     1     -14.784   2.853  -3.696  0.00  0.00    -0.506 OA
ATOM     23  H   UNL     1     -15.538   3.243  -3.299  0.00  0.00    +0.292 HD
ENDBRANCH   8  22
TORSDOF 2
ENDMDL
MODEL 2
REMARK VINA RESULT:      -7.0     10.156     12.722
REMARK  Name = min_compound986.pdb
REMARK  4 active torsions:
REMARK  status: ('A' for Active; 'I' for Inactive)
REMARK    1  A    between atoms: _3  and  _16
REMARK    2  A    between atoms: _9  and  _17
REMARK    3  A    between atoms: _14  and  _21
REMARK    4  A    between atoms: _15  and  _18
REMARK                            x       y       z     vdW  Elec       q    Type
REMARK                         _______ _______ _______ _____ _____    ______ ____
ROOT
ATOM      1  C   UNL     1     -12.456  -1.248 -16.087  0.00  0.00    +0.002 A 
ATOM      2  C   UNL     1     -13.438  -0.259 -16.103  0.00  0.00    +0.026 A 
ATOM      3  C   UNL     1     -13.062   1.045 -16.470  0.00  0.00    +0.050 A 
ATOM      4  N   UNL     1     -13.796   2.222 -16.514  0.00  0.00    -0.342 N 
ATOM      5  C   UNL     1     -15.062   2.354 -15.824  0.00  0.00    +0.149 C 
ATOM      6  C   UNL     1     -13.071   3.262 -17.090  0.00  0.00    +0.061 A 
ATOM      7  C   UNL     1     -13.436   4.613 -17.526  0.00  0.00    +0.051 A 
ATOM      8  C   UNL     1     -14.802   5.066 -17.730  0.00  0.00    +0.127 A 
ATOM      9  C   UNL     1     -14.905   6.432 -18.047  0.00  0.00    +0.049 A 
ATOM     10  C   UNL     1     -13.810   7.300 -18.205  0.00  0.00    +0.049 A 
ATOM     11  C   UNL     1     -12.473   6.900 -18.102  0.00  0.00    +0.125 A 
ATOM     12  C   UNL     1     -12.311   5.510 -17.779  0.00  0.00    +0.029 A 
ATOM     13  C   UNL     1     -11.006   4.996 -17.727  0.00  0.00    +0.013 A 
ATOM     14  C   UNL     1     -10.717   3.662 -17.458  0.00  0.00    +0.011 A 
ATOM     15  C   UNL     1     -11.754   2.780 -17.125  0.00  0.00    +0.009 A 
ATOM     16  C   UNL     1     -11.757   1.375 -16.812  0.00  0.00    +0.011 A 
ATOM     17  C   UNL     1     -10.755   0.364 -16.787  0.00  0.00    -0.041 A 
ATOM     18  C   UNL     1      -9.341   0.681 -17.177  0.00  0.00    +0.044 C 
ATOM     19  C   UNL     1     -11.139  -0.946 -16.419  0.00  0.00    +0.004 A 
ENDROOT
BRANCH  11  20
ATOM     20  O   UNL     1     -11.524   7.752 -18.295  0.00  0.00    -0.506 OA
ATOM     21  H   UNL     1     -11.705   8.671 -18.256  0.00  0.00    +0.292 HD
ENDBRANCH  11  20
BRANCH   8  22
ATOM     22  O   UNL     1     -15.873   4.357 -17.699  0.00  0.00    -0.506 OA
ATOM     23  H   UNL     1     -16.147   3.956 -16.898  0.00  0.00    +0.292 HD
ENDBRANCH   8  22
TORSDOF 2
ENDMDL
MODEL 3
REMARK VINA RESULT:      -6.8      3.911      7.624
REMARK  Name = min_compound986.pdb
REMARK  4 active torsions:
REMARK  status: ('A' for Active; 'I' for Inactive)
REMARK    1  A    between atoms: _3  and  _16
REMARK    2  A    between atoms: _9  and  _17
REMARK    3  A    between atoms: _14  and  _21
REMARK    4  A    between atoms: _15  and  _18
REMARK                            x       y       z     vdW  Elec       q    Type
REMARK                         _______ _______ _______ _____ _____    ______ ____
ROOT
ATOM      1  C   UNL     1     -17.415  -5.380  -1.982  0.00  0.00    +0.002 A 
ATOM      2  C   UNL     1     -18.062  -4.168  -2.219  0.00  0.00    +0.026 A 
ATOM      3  C   UNL     1     -17.272  -3.028  -2.450  0.00  0.00    +0.050 A 
ATOM      4  N   UNL     1     -17.630  -1.702  -2.648  0.00  0.00    -0.342 N 
ATOM      5  C   UNL     1     -18.943  -1.208  -2.292  0.00  0.00    +0.149 C 
ATOM      6  C   UNL     1     -16.534  -0.918  -3.001  0.00  0.00    +0.061 A 
ATOM      7  C   UNL     1     -16.406   0.460  -3.482  0.00  0.00    +0.051 A 
ATOM      8  C   UNL     1     -17.506   1.249  -4.009  0.00  0.00    +0.127 A 
ATOM      9  C   UNL     1     -17.159   2.578  -4.309  0.00  0.00    +0.049 A 
ATOM     10  C   UNL     1     -15.867   3.117  -4.170  0.00  0.00    +0.049 A 
ATOM     11  C   UNL     1     -14.754   2.382  -3.747  0.00  0.00    +0.125 A 
ATOM     12  C   UNL     1     -15.055   1.015  -3.427  0.00  0.00    +0.029 A 
ATOM     13  C   UNL     1     -13.990   0.176  -3.063  0.00  0.00    +0.013 A 
ATOM     14  C   UNL     1     -14.144  -1.174  -2.762  0.00  0.00    +0.011 A 
ATOM     15  C   UNL     1     -15.428  -1.734  -2.718  0.00  0.00    +0.009 A 
ATOM     16  C   UNL     1     -15.884  -3.072  -2.449  0.00  0.00    +0.011 A 
ATOM     17  C   UNL     1     -15.228  -4.310  -2.199  0.00  0.00    -0.041 A 
ATOM     18  C   UNL     1     -13.729  -4.396  -2.218  0.00  0.00    +0.044 C 
ATOM     19  C   UNL     1     -16.027  -5.453  -1.969  0.00  0.00    +0.004 A 
ENDROOT
BRANCH  11  20
ATOM     20  O   UNL     1     -13.595   2.942  -3.678  0.00  0.00    -0.506 OA
ATOM     21  H   UNL     1     -13.361   3.444  -2.921  0.00  0.00    +0.292 HD
ENDBRANCH  11  20
BRANCH   8  22
ATOM     22  O   UNL     1     -18.701   0.852  -4.262  0.00  0.00    -0.506 OA
ATOM     23  H   UNL     1     -19.345   0.841  -3.582  0.00  0.00    +0.292 HD
ENDBRANCH   8  22
TORSDOF 2
ENDMDL
MODEL 4
REMARK VINA RESULT:      -6.7      4.244      6.239
REMARK  Name = min_compound986.pdb
REMARK  4 active torsions:
REMARK  status: ('A' for Active; 'I' for Inactive)
REMARK    1  A    between atoms: _3  and  _16
REMARK    2  A    between atoms: _9  and  _17
REMARK    3  A    between atoms: _14  and  _21
REMARK    4  A    between atoms: _15  and  _18
REMARK                            x       y       z     vdW  Elec       q    Type
REMARK                         _______ _______ _______ _____ _____    ______ ____
ROOT
ATOM      1  C   UNL     1     -16.212   2.910  -4.205  0.00  0.00    +0.002 A 
ATOM      2  C   UNL     1     -17.135   1.867  -4.149  0.00  0.00    +0.026 A 
ATOM      3  C   UNL     1     -16.679   0.597  -3.757  0.00  0.00    +0.050 A 
ATOM      4  N   UNL     1     -17.344  -0.618  -3.672  0.00  0.00    -0.342 N 
ATOM      5  C   UNL     1     -18.610  -0.840  -4.338  0.00  0.00    +0.149 C 
ATOM      6  C   UNL     1     -16.551  -1.601  -3.084  0.00  0.00    +0.061 A 
ATOM      7  C   UNL     1     -16.832  -2.958  -2.609  0.00  0.00    +0.051 A 
ATOM      8  C   UNL     1     -18.166  -3.483  -2.371  0.00  0.00    +0.127 A 
ATOM      9  C   UNL     1     -18.186  -4.845  -2.020  0.00  0.00    +0.049 A 
ATOM     10  C   UNL     1     -17.040  -5.645  -1.858  0.00  0.00    +0.049 A 
ATOM     11  C   UNL     1     -15.730  -5.172  -1.994  0.00  0.00    +0.125 A 
ATOM     12  C   UNL     1     -15.654  -3.784  -2.353  0.00  0.00    +0.029 A 
ATOM     13  C   UNL     1     -14.381  -3.197  -2.439  0.00  0.00    +0.013 A 
ATOM     14  C   UNL     1     -14.173  -1.856  -2.745  0.00  0.00    +0.011 A 
ATOM     15  C   UNL     1     -15.264  -1.043  -3.082  0.00  0.00    +0.009 A 
ATOM     16  C   UNL     1     -15.352   0.351  -3.429  0.00  0.00    +0.011 A 
ATOM     17  C   UNL     1     -14.411   1.417  -3.495  0.00  0.00    -0.041 A 
ATOM     18  C   UNL     1     -12.975   1.190  -3.120  0.00  0.00    +0.044 C 
ATOM     19  C   UNL     1     -14.875   2.692  -3.888  0.00  0.00    +0.004 A 
ENDROOT
BRANCH  11  20
ATOM     20  O   UNL     1     -14.731  -5.963  -1.796  0.00  0.00    -0.506 OA
ATOM     21  H   UNL     1     -14.790  -6.638  -1.148  0.00  0.00    +0.292 HD
ENDBRANCH  11  20
BRANCH   8  22
ATOM     22  O   UNL     1     -19.276  -2.838  -2.402  0.00  0.00    -0.506 OA
ATOM     23  H   UNL     1     -19.420  -2.184  -3.057  0.00  0.00    +0.292 HD
ENDBRANCH   8  22
TORSDOF 2
ENDMDL
MODEL 5
REMARK VINA RESULT:      -6.5      3.283      4.684
REMARK  Name = min_compound986.pdb
REMARK  4 active torsions:
REMARK  status: ('A' for Active; 'I' for Inactive)
REMARK    1  A    between atoms: _3  and  _16
REMARK    2  A    between atoms: _9  and  _17
REMARK    3  A    between atoms: _14  and  _21
REMARK    4  A    between atoms: _15  and  _18
REMARK                            x       y       z     vdW  Elec       q    Type
REMARK                         _______ _______ _______ _____ _____    ______ ____
ROOT
ATOM      1  C   UNL     1     -17.785   1.573  -8.222  0.00  0.00    +0.002 A 
ATOM      2  C   UNL     1     -18.415   0.930  -7.158  0.00  0.00    +0.026 A 
ATOM      3  C   UNL     1     -17.610   0.367  -6.151  0.00  0.00    +0.050 A 
ATOM      4  N   UNL     1     -17.949  -0.372  -5.028  0.00  0.00    -0.342 N 
ATOM      5  C   UNL     1     -19.247  -0.999  -4.894  0.00  0.00    +0.149 C 
ATOM      6  C   UNL     1     -16.847  -0.601  -4.208  0.00  0.00    +0.061 A 
ATOM      7  C   UNL     1     -16.704  -1.151  -2.857  0.00  0.00    +0.051 A 
ATOM      8  C   UNL     1     -17.800  -1.307  -1.916  0.00  0.00    +0.127 A 
ATOM      9  C   UNL     1     -17.436  -1.955  -0.723  0.00  0.00    +0.049 A 
ATOM     10  C   UNL     1     -16.133  -2.384  -0.412  0.00  0.00    +0.049 A 
ATOM     11  C   UNL     1     -15.025  -2.185  -1.244  0.00  0.00    +0.125 A 
ATOM     12  C   UNL     1     -15.343  -1.526  -2.479  0.00  0.00    +0.029 A 
ATOM     13  C   UNL     1     -14.286  -1.215  -3.348  0.00  0.00    +0.013 A 
ATOM     14  C   UNL     1     -14.457  -0.549  -4.558  0.00  0.00    +0.011 A 
ATOM     15  C   UNL     1     -15.749  -0.244  -5.005  0.00  0.00    +0.009 A 
ATOM     16  C   UNL     1     -16.223   0.431  -6.186  0.00  0.00    +0.011 A 
ATOM     17  C   UNL     1     -15.584   1.081  -7.279  0.00  0.00    -0.041 A 
ATOM     18  C   UNL     1     -14.088   1.190  -7.331  0.00  0.00    +0.044 C 
ATOM     19  C   UNL     1     -16.398   1.646  -8.286  0.00  0.00    +0.004 A 
ENDROOT
BRANCH  11  20
ATOM     20  O   UNL     1     -13.855  -2.579  -0.870  0.00  0.00    -0.506 OA
ATOM     21  H   UNL     1     -13.619  -2.551   0.036  0.00  0.00    +0.292 HD
ENDBRANCH  11  20
BRANCH   8  22
ATOM     22  O   UNL     1     -19.006  -0.885  -2.045  0.00  0.00    -0.506 OA
ATOM     23  H   UNL     1     -19.194   0.030  -1.963  0.00  0.00    +0.292 HD
ENDBRANCH   8  22
TORSDOF 2
ENDMDL
MODEL 6
REMARK VINA RESULT:      -6.4      3.234      6.471
REMARK  Name = min_compound986.pdb
REMARK  4 active torsions:
REMARK  status: ('A' for Active; 'I' for Inactive)
REMARK    1  A    between atoms: _3  and  _16
REMARK    2  A    between atoms: _9  and  _17
REMARK    3  A    between atoms: _14  and  _21
REMARK    4  A    between atoms: _15  and  _18
REMARK                            x       y       z     vdW  Elec       q    Type
REMARK                         _______ _______ _______ _____ _____    ______ ____
ROOT
ATOM      1  C   UNL     1     -17.731  -1.655  -0.126  0.00  0.00    +0.002 A 
ATOM      2  C   UNL     1     -18.276  -0.806  -1.089  0.00  0.00    +0.026 A 
ATOM      3  C   UNL     1     -17.480  -0.460  -2.195  0.00  0.00    +0.050 A 
ATOM      4  N   UNL     1     -17.729   0.397  -3.258  0.00  0.00    -0.342 N 
ATOM      5  C   UNL     1     -18.787   1.384  -3.206  0.00  0.00    +0.149 C 
ATOM      6  C   UNL     1     -16.727   0.328  -4.223  0.00  0.00    +0.061 A 
ATOM      7  C   UNL     1     -16.607   0.872  -5.578  0.00  0.00    +0.051 A 
ATOM      8  C   UNL     1     -17.721   1.387  -6.355  0.00  0.00    +0.127 A 
ATOM      9  C   UNL     1     -17.341   1.953  -7.585  0.00  0.00    +0.049 A 
ATOM     10  C   UNL     1     -16.022   1.993  -8.073  0.00  0.00    +0.049 A 
ATOM     11  C   UNL     1     -14.924   1.439  -7.405  0.00  0.00    +0.125 A 
ATOM     12  C   UNL     1     -15.258   0.847  -6.141  0.00  0.00    +0.029 A 
ATOM     13  C   UNL     1     -14.236   0.199  -5.429  0.00  0.00    +0.013 A 
ATOM     14  C   UNL     1     -14.437  -0.441  -4.210  0.00  0.00    +0.011 A 
ATOM     15  C   UNL     1     -15.690  -0.373  -3.588  0.00  0.00    +0.009 A 
ATOM     16  C   UNL     1     -16.183  -0.931  -2.355  0.00  0.00    +0.011 A 
ATOM     17  C   UNL     1     -15.628  -1.790  -1.365  0.00  0.00    -0.041 A 
ATOM     18  C   UNL     1     -14.239  -2.337  -1.523  0.00  0.00    +0.044 C 
ATOM     19  C   UNL     1     -16.433  -2.135  -0.256  0.00  0.00    +0.004 A 
ENDROOT
BRANCH  11  20
ATOM     20  O   UNL     1     -13.750   1.488  -7.937  0.00  0.00    -0.506 OA
ATOM     21  H   UNL     1     -13.406   2.306  -8.237  0.00  0.00    +0.292 HD
ENDBRANCH  11  20
BRANCH   8  22
ATOM     22  O   UNL     1     -18.970   1.333  -6.061  0.00  0.00    -0.506 OA
ATOM     23  H   UNL     1     -19.443   2.121  -5.878  0.00  0.00    +0.292 HD
ENDBRANCH   8  22
TORSDOF 2
ENDMDL
MODEL 7
REMARK VINA RESULT:      -6.3      7.680     10.199
REMARK  Name = min_compound986.pdb
REMARK  4 active torsions:
REMARK  status: ('A' for Active; 'I' for Inactive)
REMARK    1  A    between atoms: _3  and  _16
REMARK    2  A    between atoms: _9  and  _17
REMARK    3  A    between atoms: _14  and  _21
REMARK    4  A    between atoms: _15  and  _18
REMARK                            x       y       z     vdW  Elec       q    Type
REMARK                         _______ _______ _______ _____ _____    ______ ____
ROOT
ATOM      1  C   UNL     1     -12.275   6.803 -18.762  0.00  0.00    +0.002 A 
ATOM      2  C   UNL     1     -13.267   7.424 -18.005  0.00  0.00    +0.026 A 
ATOM      3  C   UNL     1     -13.943   6.659 -17.038  0.00  0.00    +0.050 A 
ATOM      4  N   UNL     1     -14.996   6.986 -16.197  0.00  0.00    -0.342 N 
ATOM      5  C   UNL     1     -15.831   8.144 -16.440  0.00  0.00    +0.149 C 
ATOM      6  C   UNL     1     -15.258   5.973 -15.278  0.00  0.00    +0.061 A 
ATOM      7  C   UNL     1     -16.116   5.898 -14.092  0.00  0.00    +0.051 A 
ATOM      8  C   UNL     1     -16.685   7.052 -13.418  0.00  0.00    +0.127 A 
ATOM      9  C   UNL     1     -17.559   6.723 -12.368  0.00  0.00    +0.049 A 
ATOM     10  C   UNL     1     -17.846   5.411 -11.949  0.00  0.00    +0.049 A 
ATOM     11  C   UNL     1     -17.264   4.267 -12.507  0.00  0.00    +0.125 A 
ATOM     12  C   UNL     1     -16.361   4.549 -13.586  0.00  0.00    +0.029 A 
ATOM     13  C   UNL     1     -15.669   3.471 -14.163  0.00  0.00    +0.013 A 
ATOM     14  C   UNL     1     -14.743   3.615 -15.191  0.00  0.00    +0.011 A 
ATOM     15  C   UNL     1     -14.536   4.875 -15.768  0.00  0.00    +0.009 A 
ATOM     16  C   UNL     1     -13.657   5.318 -16.818  0.00  0.00    +0.011 A 
ATOM     17  C   UNL     1     -12.649   4.685 -17.599  0.00  0.00    -0.041 A 
ATOM     18  C   UNL     1     -12.298   3.244 -17.367  0.00  0.00    +0.044 C 
ATOM     19  C   UNL     1     -11.972   5.460 -18.568  0.00  0.00    +0.004 A 
ENDROOT
BRANCH  11  20
ATOM     20  O   UNL     1     -17.555   3.099 -12.043  0.00  0.00    -0.506 OA
ATOM     21  H   UNL     1     -16.918   2.618 -11.552  0.00  0.00    +0.292 HD
ENDBRANCH  11  20
BRANCH   8  22
ATOM     22  O   UNL     1     -16.437   8.292 -13.648  0.00  0.00    -0.506 OA
ATOM     23  H   UNL     1     -15.550   8.587 -13.721  0.00  0.00    +0.292 HD
ENDBRANCH   8  22
TORSDOF 2
ENDMDL
MODEL 8
REMARK VINA RESULT:      -6.3      3.107      6.342
REMARK  Name = min_compound986.pdb
REMARK  4 active torsions:
REMARK  status: ('A' for Active; 'I' for Inactive)
REMARK    1  A    between atoms: _3  and  _16
REMARK    2  A    between atoms: _9  and  _17
REMARK    3  A    between atoms: _14  and  _21
REMARK    4  A    between atoms: _15  and  _18
REMARK                            x       y       z     vdW  Elec       q    Type
REMARK                         _______ _______ _______ _____ _____    ______ ____
ROOT
ATOM      1  C   UNL     1     -14.898  -1.679  -1.891  0.00  0.00    +0.002 A 
ATOM      2  C   UNL     1     -14.467  -1.226  -3.137  0.00  0.00    +0.026 A 
ATOM      3  C   UNL     1     -15.425  -0.697  -4.020  0.00  0.00    +0.050 A 
ATOM      4  N   UNL     1     -15.301  -0.236  -5.322  0.00  0.00    -0.342 N 
ATOM      5  C   UNL     1     -14.149  -0.562  -6.137  0.00  0.00    +0.149 C 
ATOM      6  C   UNL     1     -16.478   0.352  -5.777  0.00  0.00    +0.061 A 
ATOM      7  C   UNL     1     -16.807   1.133  -6.973  0.00  0.00    +0.051 A 
ATOM      8  C   UNL     1     -15.822   1.746  -7.847  0.00  0.00    +0.127 A 
ATOM      9  C   UNL     1     -16.376   2.354  -8.988  0.00  0.00    +0.049 A 
ATOM     10  C   UNL     1     -17.753   2.423  -9.267  0.00  0.00    +0.049 A 
ATOM     11  C   UNL     1     -18.749   1.923  -8.420  0.00  0.00    +0.125 A 
ATOM     12  C   UNL     1     -18.236   1.291  -7.238  0.00  0.00    +0.029 A 
ATOM     13  C   UNL     1     -19.159   0.824  -6.290  0.00  0.00    +0.013 A 
ATOM     14  C   UNL     1     -18.790   0.224  -5.090  0.00  0.00    +0.011 A 
ATOM     15  C   UNL     1     -17.437  -0.028  -4.826  0.00  0.00    +0.009 A 
ATOM     16  C   UNL     1     -16.772  -0.615  -3.693  0.00  0.00    +0.011 A 
ATOM     17  C   UNL     1     -17.209  -1.087  -2.423  0.00  0.00    -0.041 A 
ATOM     18  C   UNL     1     -18.654  -0.988  -2.029  0.00  0.00    +0.044 C 
ATOM     19  C   UNL     1     -16.241  -1.616  -1.540  0.00  0.00    +0.004 A 
ENDROOT
BRANCH  11  20
ATOM     20  O   UNL     1     -19.993   2.057  -8.733  0.00  0.00    -0.506 OA
ATOM     21  H   UNL     1     -20.450   2.844  -8.508  0.00  0.00    +0.292 HD
ENDBRANCH  11  20
BRANCH   8  22
ATOM     22  O   UNL     1     -14.554   1.825  -7.661  0.00  0.00    -0.506 OA
ATOM     23  H   UNL     1     -13.968   1.761  -8.390  0.00  0.00    +0.292 HD
ENDBRANCH   8  22
TORSDOF 2
ENDMDL
MODEL 9
REMARK VINA RESULT:      -6.3      2.333      3.639
REMARK  Name = min_compound986.pdb
REMARK  4 active torsions:
REMARK  status: ('A' for Active; 'I' for Inactive)
REMARK    1  A    between atoms: _3  and  _16
REMARK    2  A    between atoms: _9  and  _17
REMARK    3  A    between atoms: _14  and  _21
REMARK    4  A    between atoms: _15  and  _18
REMARK                            x       y       z     vdW  Elec       q    Type
REMARK                         _______ _______ _______ _____ _____    ______ ____
ROOT
ATOM      1  C   UNL     1     -16.898   3.217  -9.312  0.00  0.00    +0.002 A 
ATOM      2  C   UNL     1     -15.978   2.336  -8.745  0.00  0.00    +0.026 A 
ATOM      3  C   UNL     1     -16.251   1.825  -7.464  0.00  0.00    +0.050 A 
ATOM      4  N   UNL     1     -15.504   0.996  -6.641  0.00  0.00    -0.342 N 
ATOM      5  C   UNL     1     -14.087   0.787  -6.857  0.00  0.00    +0.149 C 
ATOM      6  C   UNL     1     -16.221   0.604  -5.513  0.00  0.00    +0.061 A 
ATOM      7  C   UNL     1     -15.965  -0.382  -4.460  0.00  0.00    +0.051 A 
ATOM      8  C   UNL     1     -14.972  -1.438  -4.550  0.00  0.00    +0.127 A 
ATOM      9  C   UNL     1     -14.838  -2.194  -3.373  0.00  0.00    +0.049 A 
ATOM     10  C   UNL     1     -15.608  -2.006  -2.211  0.00  0.00    +0.049 A 
ATOM     11  C   UNL     1     -16.633  -1.060  -2.096  0.00  0.00    +0.125 A 
ATOM     12  C   UNL     1     -16.811  -0.260  -3.274  0.00  0.00    +0.029 A 
ATOM     13  C   UNL     1     -17.865   0.668  -3.285  0.00  0.00    +0.013 A 
ATOM     14  C   UNL     1     -18.164   1.478  -4.375  0.00  0.00    +0.011 A 
ATOM     15  C   UNL     1     -17.332   1.460  -5.503  0.00  0.00    +0.009 A 
ATOM     16  C   UNL     1     -17.395   2.168  -6.754  0.00  0.00    +0.011 A 
ATOM     17  C   UNL     1     -18.327   3.074  -7.334  0.00  0.00    -0.041 A 
ATOM     18  C   UNL     1     -19.585   3.444  -6.604  0.00  0.00    +0.044 C 
ATOM     19  C   UNL     1     -18.048   3.583  -8.623  0.00  0.00    +0.004 A 
ENDROOT
BRANCH  11  20
ATOM     20  O   UNL     1     -17.316  -0.973  -1.006  0.00  0.00    -0.506 OA
ATOM     21  H   UNL     1     -18.005  -0.342  -0.934  0.00  0.00    +0.292 HD
ENDBRANCH  11  20
BRANCH   8  22
ATOM     22  O   UNL     1     -14.270  -1.765  -5.576  0.00  0.00    -0.506 OA
ATOM     23  H   UNL     1     -14.541  -2.478  -6.121  0.00  0.00    +0.292 HD
ENDBRANCH   8  22
TORSDOF 2
ENDMDL
