MODEL 1
REMARK VINA RESULT:      -6.3      0.000      0.000
REMARK  Name = min_compound958.pdb
REMARK  8 active torsions:
REMARK  status: ('A' for Active; 'I' for Inactive)
REMARK    1  A    between atoms: _8  and  _15
REMARK    2  A    between atoms: _9  and  _10
REMARK    3  A    between atoms: _10  and  _12
REMARK    4  A    between atoms: _12  and  _16
REMARK    5  A    between atoms: _14  and  _15
REMARK    6  A    between atoms: _14  and  _18
REMARK    7  A    between atoms: _16  and  _17
REMARK    8  A    between atoms: _18  and  _19
REMARK                            x       y       z     vdW  Elec       q    Type
REMARK                         _______ _______ _______ _____ _____    ______ ____
ROOT
ATOM      1  C   UNL     1      -9.600  -0.152 -17.397  0.00  0.00    +0.005 C 
ATOM      2  C   UNL     1     -10.137  -0.934 -16.235  0.00  0.00    +0.005 C 
ATOM      3  C   UNL     1     -11.765  -0.638 -16.526  0.00  0.00    +0.042 C 
ATOM      4  C   UNL     1     -12.087   0.830 -16.513  0.00  0.00    -0.013 C 
ATOM      5  S   UNL     1     -13.644   1.497 -16.257  0.00  0.00    -0.106 S 
ATOM      6  C   UNL     1     -12.958   3.042 -15.869  0.00  0.00    +0.152 C 
ATOM      7  C   UNL     1     -11.719   3.141 -16.520  0.00  0.00    +0.155 C 
ATOM      8  C   UNL     1     -11.170   1.810 -16.797  0.00  0.00    -0.044 C 
ATOM      9  C   UNL     1      -9.787   1.411 -17.270  0.00  0.00    +0.032 C 
ENDROOT
BRANCH   6  10
ATOM     10  N   UNL     1     -13.746   4.033 -15.237  0.00  0.00    -0.313 N 
ATOM     11  H   UNL     1     -13.207   4.624 -14.608  0.00  0.00    +0.149 HD
BRANCH  10  12
ATOM     12  C   UNL     1     -15.111   4.177 -14.988  0.00  0.00    +0.131 C 
ATOM     13  S   UNL     1     -16.033   4.998 -16.118  0.00  0.00    -0.019 S 
BRANCH  12  14
ATOM     14  N   UNL     1     -15.720   3.791 -13.811  0.00  0.00    -0.330 N 
ATOM     15  H   UNL     1     -15.528   4.249 -12.928  0.00  0.00    +0.147 HD
ATOM     16  C   UNL     1     -16.675   2.649 -13.998  0.00  0.00    +0.127 C 
ENDBRANCH  12  14
ENDBRANCH  10  12
ENDBRANCH   6  10
BRANCH   7  17
ATOM     17  C   UNL     1     -11.013   4.391 -16.788  0.00  0.00    +0.317 C 
ATOM     18  O   UNL     1     -10.048   4.769 -16.138  0.00  0.00    -0.250 OA
BRANCH  17  19
ATOM     19  O   UNL     1     -11.484   5.024 -17.904  0.00  0.00    -0.464 OA
BRANCH  19  20
ATOM     20  C   UNL     1     -12.224   6.230 -17.664  0.00  0.00    +0.229 C 
ATOM     21  C   UNL     1     -11.904   7.269 -18.727  0.00  0.00    +0.048 C 
ENDBRANCH  19  20
ENDBRANCH  17  19
ENDBRANCH   7  17
TORSDOF 6
ENDMDL
MODEL 2
REMARK VINA RESULT:      -6.2      3.043      3.956
REMARK  Name = min_compound958.pdb
REMARK  8 active torsions:
REMARK  status: ('A' for Active; 'I' for Inactive)
REMARK    1  A    between atoms: _8  and  _15
REMARK    2  A    between atoms: _9  and  _10
REMARK    3  A    between atoms: _10  and  _12
REMARK    4  A    between atoms: _12  and  _16
REMARK    5  A    between atoms: _14  and  _15
REMARK    6  A    between atoms: _14  and  _18
REMARK    7  A    between atoms: _16  and  _17
REMARK    8  A    between atoms: _18  and  _19
REMARK                            x       y       z     vdW  Elec       q    Type
REMARK                         _______ _______ _______ _____ _____    ______ ____
ROOT
ATOM      1  C   UNL     1     -11.333  -1.070 -16.047  0.00  0.00    +0.005 C 
ATOM      2  C   UNL     1      -9.863  -0.776 -16.010  0.00  0.00    +0.005 C 
ATOM      3  C   UNL     1      -9.972   0.700 -15.214  0.00  0.00    +0.042 C 
ATOM      4  C   UNL     1     -10.805   1.695 -15.973  0.00  0.00    -0.013 C 
ATOM      5  S   UNL     1     -10.734   3.395 -15.776  0.00  0.00    -0.106 S 
ATOM      6  C   UNL     1     -11.510   3.640 -17.308  0.00  0.00    +0.152 C 
ATOM      7  C   UNL     1     -12.296   2.511 -17.581  0.00  0.00    +0.155 C 
ATOM      8  C   UNL     1     -11.791   1.340 -16.857  0.00  0.00    -0.044 C 
ATOM      9  C   UNL     1     -12.162  -0.123 -17.000  0.00  0.00    +0.032 C 
ENDROOT
BRANCH   6  10
ATOM     10  N   UNL     1     -11.490   4.915 -17.921  0.00  0.00    -0.313 N 
ATOM     11  H   UNL     1     -10.547   5.266 -18.072  0.00  0.00    +0.149 HD
BRANCH  10  12
ATOM     12  C   UNL     1     -12.418   5.950 -18.041  0.00  0.00    +0.131 C 
ATOM     13  S   UNL     1     -11.995   7.281 -18.965  0.00  0.00    -0.019 S 
BRANCH  12  14
ATOM     14  N   UNL     1     -13.610   5.996 -17.346  0.00  0.00    -0.330 N 
ATOM     15  H   UNL     1     -14.045   5.164 -16.965  0.00  0.00    +0.147 HD
ATOM     16  C   UNL     1     -14.159   7.386 -17.225  0.00  0.00    +0.127 C 
ENDBRANCH  12  14
ENDBRANCH  10  12
ENDBRANCH   6  10
BRANCH   7  17
ATOM     17  C   UNL     1     -13.398   2.471 -18.538  0.00  0.00    +0.317 C 
ATOM     18  O   UNL     1     -14.482   3.004 -18.337  0.00  0.00    -0.250 OA
BRANCH  17  19
ATOM     19  O   UNL     1     -13.044   1.869 -19.713  0.00  0.00    -0.464 OA
BRANCH  19  20
ATOM     20  C   UNL     1     -13.928   2.104 -20.818  0.00  0.00    +0.229 C 
ATOM     21  C   UNL     1     -13.318   1.576 -22.107  0.00  0.00    +0.048 C 
ENDBRANCH  19  20
ENDBRANCH  17  19
ENDBRANCH   7  17
TORSDOF 6
ENDMDL
MODEL 3
REMARK VINA RESULT:      -6.1      2.613      4.365
REMARK  Name = min_compound958.pdb
REMARK  8 active torsions:
REMARK  status: ('A' for Active; 'I' for Inactive)
REMARK    1  A    between atoms: _8  and  _15
REMARK    2  A    between atoms: _9  and  _10
REMARK    3  A    between atoms: _10  and  _12
REMARK    4  A    between atoms: _12  and  _16
REMARK    5  A    between atoms: _14  and  _15
REMARK    6  A    between atoms: _14  and  _18
REMARK    7  A    between atoms: _16  and  _17
REMARK    8  A    between atoms: _18  and  _19
REMARK                            x       y       z     vdW  Elec       q    Type
REMARK                         _______ _______ _______ _____ _____    ______ ____
ROOT
ATOM      1  C   UNL     1     -11.454  -1.009 -16.244  0.00  0.00    +0.005 C 
ATOM      2  C   UNL     1     -10.194  -0.652 -16.975  0.00  0.00    +0.005 C 
ATOM      3  C   UNL     1      -9.837   0.736 -16.096  0.00  0.00    +0.042 C 
ATOM      4  C   UNL     1     -10.935   1.758 -16.176  0.00  0.00    -0.013 C 
ATOM      5  S   UNL     1     -10.748   3.434 -15.871  0.00  0.00    -0.106 S 
ATOM      6  C   UNL     1     -12.226   3.787 -16.707  0.00  0.00    +0.152 C 
ATOM      7  C   UNL     1     -13.049   2.653 -16.629  0.00  0.00    +0.155 C 
ATOM      8  C   UNL     1     -12.248   1.443 -16.420  0.00  0.00    -0.044 C 
ATOM      9  C   UNL     1     -12.654  -0.015 -16.494  0.00  0.00    +0.032 C 
ENDROOT
BRANCH   6  10
ATOM     10  N   UNL     1     -12.525   5.114 -17.096  0.00  0.00    -0.313 N 
ATOM     11  H   UNL     1     -12.893   5.676 -16.331  0.00  0.00    +0.149 HD
BRANCH  10  12
ATOM     12  C   UNL     1     -12.778   5.735 -18.320  0.00  0.00    +0.131 C 
ATOM     13  S   UNL     1     -11.985   7.172 -18.649  0.00  0.00    -0.019 S 
BRANCH  12  14
ATOM     14  N   UNL     1     -13.731   5.299 -19.218  0.00  0.00    -0.330 N 
ATOM     15  H   UNL     1     -14.674   5.062 -18.932  0.00  0.00    +0.147 HD
ATOM     16  C   UNL     1     -13.215   5.227 -20.624  0.00  0.00    +0.127 C 
ENDBRANCH  12  14
ENDBRANCH  10  12
ENDBRANCH   6  10
BRANCH   7  17
ATOM     17  C   UNL     1     -14.494   2.653 -16.839  0.00  0.00    +0.317 C 
ATOM     18  O   UNL     1     -15.020   2.998 -17.889  0.00  0.00    -0.250 OA
BRANCH  17  19
ATOM     19  O   UNL     1     -15.173   2.124 -15.777  0.00  0.00    -0.464 OA
BRANCH  19  20
ATOM     20  C   UNL     1     -15.544   3.060 -14.754  0.00  0.00    +0.229 C 
ATOM     21  C   UNL     1     -16.894   2.690 -14.162  0.00  0.00    +0.048 C 
ENDBRANCH  19  20
ENDBRANCH  17  19
ENDBRANCH   7  17
TORSDOF 6
ENDMDL
MODEL 4
REMARK VINA RESULT:      -5.6      2.653      3.971
REMARK  Name = min_compound958.pdb
REMARK  8 active torsions:
REMARK  status: ('A' for Active; 'I' for Inactive)
REMARK    1  A    between atoms: _8  and  _15
REMARK    2  A    between atoms: _9  and  _10
REMARK    3  A    between atoms: _10  and  _12
REMARK    4  A    between atoms: _12  and  _16
REMARK    5  A    between atoms: _14  and  _15
REMARK    6  A    between atoms: _14  and  _18
REMARK    7  A    between atoms: _16  and  _17
REMARK    8  A    between atoms: _18  and  _19
REMARK                            x       y       z     vdW  Elec       q    Type
REMARK                         _______ _______ _______ _____ _____    ______ ____
ROOT
ATOM      1  C   UNL     1     -10.096   0.763 -15.616  0.00  0.00    +0.005 C 
ATOM      2  C   UNL     1     -10.648  -0.516 -16.174  0.00  0.00    +0.005 C 
ATOM      3  C   UNL     1     -10.871   0.031 -17.748  0.00  0.00    +0.042 C 
ATOM      4  C   UNL     1     -11.799   1.211 -17.814  0.00  0.00    -0.013 C 
ATOM      5  S   UNL     1     -12.660   1.714 -19.207  0.00  0.00    -0.106 S 
ATOM      6  C   UNL     1     -13.756   2.644 -18.238  0.00  0.00    +0.152 C 
ATOM      7  C   UNL     1     -13.087   3.014 -17.061  0.00  0.00    +0.155 C 
ATOM      8  C   UNL     1     -11.992   2.082 -16.772  0.00  0.00    -0.044 C 
ATOM      9  C   UNL     1     -11.146   1.938 -15.523  0.00  0.00    +0.032 C 
ENDROOT
BRANCH   6  10
ATOM     10  N   UNL     1     -14.973   3.111 -18.787  0.00  0.00    -0.313 N 
ATOM     11  H   UNL     1     -15.625   2.359 -19.000  0.00  0.00    +0.149 HD
BRANCH  10  12
ATOM     12  C   UNL     1     -15.360   4.286 -19.433  0.00  0.00    +0.131 C 
ATOM     13  S   UNL     1     -16.699   4.227 -20.436  0.00  0.00    -0.019 S 
BRANCH  12  14
ATOM     14  N   UNL     1     -14.634   5.459 -19.389  0.00  0.00    -0.330 N 
ATOM     15  H   UNL     1     -14.758   6.144 -18.653  0.00  0.00    +0.147 HD
ATOM     16  C   UNL     1     -13.668   5.588 -20.529  0.00  0.00    +0.127 C 
ENDBRANCH  12  14
ENDBRANCH  10  12
ENDBRANCH   6  10
BRANCH   7  17
ATOM     17  C   UNL     1     -13.488   4.107 -16.180  0.00  0.00    +0.317 C 
ATOM     18  O   UNL     1     -13.454   5.284 -16.512  0.00  0.00    -0.250 OA
BRANCH  17  19
ATOM     19  O   UNL     1     -14.000   3.657 -14.994  0.00  0.00    -0.464 OA
BRANCH  19  20
ATOM     20  C   UNL     1     -15.431   3.676 -14.894  0.00  0.00    +0.229 C 
ATOM     21  C   UNL     1     -15.981   2.258 -14.906  0.00  0.00    +0.048 C 
ENDBRANCH  19  20
ENDBRANCH  17  19
ENDBRANCH   7  17
TORSDOF 6
ENDMDL
MODEL 5
REMARK VINA RESULT:      -5.6      2.843      3.471
REMARK  Name = min_compound958.pdb
REMARK  8 active torsions:
REMARK  status: ('A' for Active; 'I' for Inactive)
REMARK    1  A    between atoms: _8  and  _15
REMARK    2  A    between atoms: _9  and  _10
REMARK    3  A    between atoms: _10  and  _12
REMARK    4  A    between atoms: _12  and  _16
REMARK    5  A    between atoms: _14  and  _15
REMARK    6  A    between atoms: _14  and  _18
REMARK    7  A    between atoms: _16  and  _17
REMARK    8  A    between atoms: _18  and  _19
REMARK                            x       y       z     vdW  Elec       q    Type
REMARK                         _______ _______ _______ _____ _____    ______ ____
ROOT
ATOM      1  C   UNL     1     -10.736  -0.782 -16.840  0.00  0.00    +0.005 C 
ATOM      2  C   UNL     1      -9.453  -0.089 -16.490  0.00  0.00    +0.005 C 
ATOM      3  C   UNL     1     -10.113   1.034 -15.428  0.00  0.00    +0.042 C 
ATOM      4  C   UNL     1     -11.149   1.900 -16.088  0.00  0.00    -0.013 C 
ATOM      5  S   UNL     1     -11.656   3.436 -15.524  0.00  0.00    -0.106 S 
ATOM      6  C   UNL     1     -12.319   3.827 -17.078  0.00  0.00    +0.152 C 
ATOM      7  C   UNL     1     -12.664   2.627 -17.716  0.00  0.00    +0.155 C 
ATOM      8  C   UNL     1     -11.876   1.510 -17.184  0.00  0.00    -0.044 C 
ATOM      9  C   UNL     1     -11.734   0.092 -17.697  0.00  0.00    +0.032 C 
ENDROOT
BRANCH   6  10
ATOM     10  N   UNL     1     -12.659   5.165 -17.392  0.00  0.00    -0.313 N 
ATOM     11  H   UNL     1     -11.855   5.789 -17.383  0.00  0.00    +0.149 HD
BRANCH  10  12
ATOM     12  C   UNL     1     -13.844   5.900 -17.361  0.00  0.00    +0.131 C 
ATOM     13  S   UNL     1     -13.768   7.530 -17.733  0.00  0.00    -0.019 S 
BRANCH  12  14
ATOM     14  N   UNL     1     -15.050   5.390 -16.923  0.00  0.00    -0.330 N 
ATOM     15  H   UNL     1     -15.724   4.976 -17.556  0.00  0.00    +0.147 HD
ATOM     16  C   UNL     1     -15.231   5.518 -15.439  0.00  0.00    +0.127 C 
ENDBRANCH  12  14
ENDBRANCH  10  12
ENDBRANCH   6  10
BRANCH   7  17
ATOM     17  C   UNL     1     -13.596   2.511 -18.834  0.00  0.00    +0.317 C 
ATOM     18  O   UNL     1     -14.746   2.930 -18.796  0.00  0.00    -0.250 OA
BRANCH  17  19
ATOM     19  O   UNL     1     -13.007   1.986 -19.950  0.00  0.00    -0.464 OA
BRANCH  19  20
ATOM     20  C   UNL     1     -13.477   2.508 -21.201  0.00  0.00    +0.229 C 
ATOM     21  C   UNL     1     -14.268   1.450 -21.953  0.00  0.00    +0.048 C 
ENDBRANCH  19  20
ENDBRANCH  17  19
ENDBRANCH   7  17
TORSDOF 6
ENDMDL
MODEL 6
REMARK VINA RESULT:      -5.4     11.546     13.671
REMARK  Name = min_compound958.pdb
REMARK  8 active torsions:
REMARK  status: ('A' for Active; 'I' for Inactive)
REMARK    1  A    between atoms: _8  and  _15
REMARK    2  A    between atoms: _9  and  _10
REMARK    3  A    between atoms: _10  and  _12
REMARK    4  A    between atoms: _12  and  _16
REMARK    5  A    between atoms: _14  and  _15
REMARK    6  A    between atoms: _14  and  _18
REMARK    7  A    between atoms: _16  and  _17
REMARK    8  A    between atoms: _18  and  _19
REMARK                            x       y       z     vdW  Elec       q    Type
REMARK                         _______ _______ _______ _____ _____    ______ ____
ROOT
ATOM      1  C   UNL     1     -14.484  -2.424  -1.469  0.00  0.00    +0.005 C 
ATOM      2  C   UNL     1     -15.602  -2.206  -0.493  0.00  0.00    +0.005 C 
ATOM      3  C   UNL     1     -16.837  -2.080  -1.626  0.00  0.00    +0.042 C 
ATOM      4  C   UNL     1     -16.606  -0.955  -2.596  0.00  0.00    -0.013 C 
ATOM      5  S   UNL     1     -17.822  -0.195  -3.533  0.00  0.00    -0.106 S 
ATOM      6  C   UNL     1     -16.796   1.175  -3.817  0.00  0.00    +0.152 C 
ATOM      7  C   UNL     1     -15.464   0.744  -3.729  0.00  0.00    +0.155 C 
ATOM      8  C   UNL     1     -15.363  -0.467  -2.908  0.00  0.00    -0.044 C 
ATOM      9  C   UNL     1     -14.137  -1.162  -2.352  0.00  0.00    +0.032 C 
ENDROOT
BRANCH   6  10
ATOM     10  N   UNL     1     -17.340   2.381  -4.318  0.00  0.00    -0.313 N 
ATOM     11  H   UNL     1     -17.404   2.393  -5.334  0.00  0.00    +0.149 HD
BRANCH  10  12
ATOM     12  C   UNL     1     -17.476   3.672  -3.808  0.00  0.00    +0.131 C 
ATOM     13  S   UNL     1     -18.995   4.160  -3.300  0.00  0.00    -0.019 S 
BRANCH  12  14
ATOM     14  N   UNL     1     -16.462   4.608  -3.812  0.00  0.00    -0.330 N 
ATOM     15  H   UNL     1     -15.505   4.369  -3.580  0.00  0.00    +0.147 HD
ATOM     16  C   UNL     1     -16.937   5.979  -4.193  0.00  0.00    +0.127 C 
ENDBRANCH  12  14
ENDBRANCH  10  12
ENDBRANCH   6  10
BRANCH   7  17
ATOM     17  C   UNL     1     -14.316   1.457  -4.282  0.00  0.00    +0.317 C 
ATOM     18  O   UNL     1     -14.051   2.619  -4.004  0.00  0.00    -0.250 OA
BRANCH  17  19
ATOM     19  O   UNL     1     -13.524   0.650  -5.051  0.00  0.00    -0.464 OA
BRANCH  19  20
ATOM     20  C   UNL     1     -14.153   0.096  -6.216  0.00  0.00    +0.229 C 
ATOM     21  C   UNL     1     -14.501   1.198  -7.204  0.00  0.00    +0.048 C 
ENDBRANCH  19  20
ENDBRANCH  17  19
ENDBRANCH   7  17
TORSDOF 6
ENDMDL
MODEL 7
REMARK VINA RESULT:      -5.3      3.165      4.759
REMARK  Name = min_compound958.pdb
REMARK  8 active torsions:
REMARK  status: ('A' for Active; 'I' for Inactive)
REMARK    1  A    between atoms: _8  and  _15
REMARK    2  A    between atoms: _9  and  _10
REMARK    3  A    between atoms: _10  and  _12
REMARK    4  A    between atoms: _12  and  _16
REMARK    5  A    between atoms: _14  and  _15
REMARK    6  A    between atoms: _14  and  _18
REMARK    7  A    between atoms: _16  and  _17
REMARK    8  A    between atoms: _18  and  _19
REMARK                            x       y       z     vdW  Elec       q    Type
REMARK                         _______ _______ _______ _____ _____    ______ ____
ROOT
ATOM      1  C   UNL     1     -11.121   2.265 -15.574  0.00  0.00    +0.005 C 
ATOM      2  C   UNL     1     -10.490   2.198 -16.933  0.00  0.00    +0.005 C 
ATOM      3  C   UNL     1     -10.255   3.851 -17.128  0.00  0.00    +0.042 C 
ATOM      4  C   UNL     1     -11.543   4.621 -17.058  0.00  0.00    -0.013 C 
ATOM      5  S   UNL     1     -11.792   6.190 -17.699  0.00  0.00    -0.106 S 
ATOM      6  C   UNL     1     -13.512   5.973 -17.659  0.00  0.00    +0.152 C 
ATOM      7  C   UNL     1     -13.807   5.046 -16.648  0.00  0.00    +0.155 C 
ATOM      8  C   UNL     1     -12.653   4.181 -16.383  0.00  0.00    -0.044 C 
ATOM      9  C   UNL     1     -12.560   2.915 -15.556  0.00  0.00    +0.032 C 
ENDROOT
BRANCH   6  10
ATOM     10  N   UNL     1     -14.358   6.851 -18.376  0.00  0.00    -0.313 N 
ATOM     11  H   UNL     1     -14.038   7.021 -19.327  0.00  0.00    +0.149 HD
BRANCH  10  12
ATOM     12  C   UNL     1     -15.304   7.808 -18.005  0.00  0.00    +0.131 C 
ATOM     13  S   UNL     1     -16.865   7.633 -18.581  0.00  0.00    -0.019 S 
BRANCH  12  14
ATOM     14  N   UNL     1     -14.999   8.952 -17.294  0.00  0.00    -0.330 N 
ATOM     15  H   UNL     1     -14.388   9.671 -17.665  0.00  0.00    +0.147 HD
ATOM     16  C   UNL     1     -15.666   8.998 -15.952  0.00  0.00    +0.127 C 
ENDBRANCH  12  14
ENDBRANCH  10  12
ENDBRANCH   6  10
BRANCH   7  17
ATOM     17  C   UNL     1     -15.115   4.882 -16.020  0.00  0.00    +0.317 C 
ATOM     18  O   UNL     1     -15.532   5.618 -15.135  0.00  0.00    -0.250 OA
BRANCH  17  19
ATOM     19  O   UNL     1     -15.853   3.891 -16.606  0.00  0.00    -0.464 OA
BRANCH  19  20
ATOM     20  C   UNL     1     -16.804   3.242 -15.750  0.00  0.00    +0.229 C 
ATOM     21  C   UNL     1     -16.135   2.122 -14.968  0.00  0.00    +0.048 C 
ENDBRANCH  19  20
ENDBRANCH  17  19
ENDBRANCH   7  17
TORSDOF 6
ENDMDL
MODEL 8
REMARK VINA RESULT:      -5.2      9.647     12.129
REMARK  Name = min_compound958.pdb
REMARK  8 active torsions:
REMARK  status: ('A' for Active; 'I' for Inactive)
REMARK    1  A    between atoms: _8  and  _15
REMARK    2  A    between atoms: _9  and  _10
REMARK    3  A    between atoms: _10  and  _12
REMARK    4  A    between atoms: _12  and  _16
REMARK    5  A    between atoms: _14  and  _15
REMARK    6  A    between atoms: _14  and  _18
REMARK    7  A    between atoms: _16  and  _17
REMARK    8  A    between atoms: _18  and  _19
REMARK                            x       y       z     vdW  Elec       q    Type
REMARK                         _______ _______ _______ _____ _____    ______ ____
ROOT
ATOM      1  C   UNL     1     -14.249  -0.423  -3.317  0.00  0.00    +0.005 C 
ATOM      2  C   UNL     1     -14.813  -1.527  -4.162  0.00  0.00    +0.005 C 
ATOM      3  C   UNL     1     -14.461  -0.837  -5.654  0.00  0.00    +0.042 C 
ATOM      4  C   UNL     1     -15.118   0.503  -5.830  0.00  0.00    -0.013 C 
ATOM      5  S   UNL     1     -15.427   1.262  -7.335  0.00  0.00    -0.106 S 
ATOM      6  C   UNL     1     -16.593   2.317  -6.604  0.00  0.00    +0.152 C 
ATOM      7  C   UNL     1     -16.254   2.465  -5.251  0.00  0.00    +0.155 C 
ATOM      8  C   UNL     1     -15.466   1.320  -4.784  0.00  0.00    -0.044 C 
ATOM      9  C   UNL     1     -15.068   0.925  -3.376  0.00  0.00    +0.032 C 
ENDROOT
BRANCH   6  10
ATOM     10  N   UNL     1     -17.494   3.051  -7.411  0.00  0.00    -0.313 N 
ATOM     11  H   UNL     1     -18.293   2.498  -7.714  0.00  0.00    +0.149 HD
BRANCH  10  12
ATOM     12  C   UNL     1     -17.388   4.212  -8.177  0.00  0.00    +0.131 C 
ATOM     13  S   UNL     1     -17.502   5.685  -7.390  0.00  0.00    -0.019 S 
BRANCH  12  14
ATOM     14  N   UNL     1     -17.320   4.217  -9.556  0.00  0.00    -0.330 N 
ATOM     15  H   UNL     1     -18.116   4.455 -10.135  0.00  0.00    +0.147 HD
ATOM     16  C   UNL     1     -15.963   3.841 -10.072  0.00  0.00    +0.127 C 
ENDBRANCH  12  14
ENDBRANCH  10  12
ENDBRANCH   6  10
BRANCH   7  17
ATOM     17  C   UNL     1     -16.713   3.550  -4.387  0.00  0.00    +0.317 C 
ATOM     18  O   UNL     1     -15.956   4.362  -3.870  0.00  0.00    -0.250 OA
BRANCH  17  19
ATOM     19  O   UNL     1     -18.076   3.615  -4.315  0.00  0.00    -0.464 OA
BRANCH  19  20
ATOM     20  C   UNL     1     -18.635   3.422  -3.008  0.00  0.00    +0.229 C 
ATOM     21  C   UNL     1     -18.910   1.947  -2.761  0.00  0.00    +0.048 C 
ENDBRANCH  19  20
ENDBRANCH  17  19
ENDBRANCH   7  17
TORSDOF 6
ENDMDL
MODEL 9
REMARK VINA RESULT:      -5.1      9.845     12.129
REMARK  Name = min_compound958.pdb
REMARK  8 active torsions:
REMARK  status: ('A' for Active; 'I' for Inactive)
REMARK    1  A    between atoms: _8  and  _15
REMARK    2  A    between atoms: _9  and  _10
REMARK    3  A    between atoms: _10  and  _12
REMARK    4  A    between atoms: _12  and  _16
REMARK    5  A    between atoms: _14  and  _15
REMARK    6  A    between atoms: _14  and  _18
REMARK    7  A    between atoms: _16  and  _17
REMARK    8  A    between atoms: _18  and  _19
REMARK                            x       y       z     vdW  Elec       q    Type
REMARK                         _______ _______ _______ _____ _____    ______ ____
ROOT
ATOM      1  C   UNL     1     -16.697   3.377  -9.758  0.00  0.00    +0.005 C 
ATOM      2  C   UNL     1     -18.168   3.098  -9.846  0.00  0.00    +0.005 C 
ATOM      3  C   UNL     1     -18.555   3.556  -8.276  0.00  0.00    +0.042 C 
ATOM      4  C   UNL     1     -17.811   2.750  -7.249  0.00  0.00    -0.013 C 
ATOM      5  S   UNL     1     -18.286   2.553  -5.614  0.00  0.00    -0.106 S 
ATOM      6  C   UNL     1     -17.267   1.160  -5.448  0.00  0.00    +0.152 C 
ATOM      7  C   UNL     1     -16.216   1.281  -6.370  0.00  0.00    +0.155 C 
ATOM      8  C   UNL     1     -16.602   2.147  -7.488  0.00  0.00    -0.044 C 
ATOM      9  C   UNL     1     -15.904   2.394  -8.810  0.00  0.00    +0.032 C 
ENDROOT
BRANCH   6  10
ATOM     10  N   UNL     1     -17.426   0.288  -4.346  0.00  0.00    -0.313 N 
ATOM     11  H   UNL     1     -17.261   0.746  -3.452  0.00  0.00    +0.149 HD
BRANCH  10  12
ATOM     12  C   UNL     1     -17.400  -1.099  -4.192  0.00  0.00    +0.131 C 
ATOM     13  S   UNL     1     -18.861  -1.897  -4.015  0.00  0.00    -0.019 S 
BRANCH  12  14
ATOM     14  N   UNL     1     -16.239  -1.833  -4.055  0.00  0.00    -0.330 N 
ATOM     15  H   UNL     1     -15.851  -2.377  -4.816  0.00  0.00    +0.147 HD
ATOM     16  C   UNL     1     -15.642  -1.724  -2.683  0.00  0.00    +0.127 C 
ENDBRANCH  12  14
ENDBRANCH  10  12
ENDBRANCH   6  10
BRANCH   7  17
ATOM     17  C   UNL     1     -14.949   0.558  -6.293  0.00  0.00    +0.317 C 
ATOM     18  O   UNL     1     -14.795  -0.575  -6.732  0.00  0.00    -0.250 OA
BRANCH  17  19
ATOM     19  O   UNL     1     -13.942   1.327  -5.779  0.00  0.00    -0.464 OA
BRANCH  19  20
ATOM     20  C   UNL     1     -13.665   1.129  -4.386  0.00  0.00    +0.229 C 
ATOM     21  C   UNL     1     -13.773   2.445  -3.632  0.00  0.00    +0.048 C 
ENDBRANCH  19  20
ENDBRANCH  17  19
ENDBRANCH   7  17
TORSDOF 6
ENDMDL
