MODEL 1
REMARK VINA RESULT:      -5.5      0.000      0.000
REMARK  Name = min_compound9.pdb
REMARK  0 active torsions:
REMARK  status: ('A' for Active; 'I' for Inactive)
REMARK                            x       y       z     vdW  Elec       q    Type
REMARK                         _______ _______ _______ _____ _____    ______ ____
ROOT
ATOM      1  C   UNL     1     -11.345  -1.071 -16.244  0.00  0.00    +0.023 A 
ATOM      2  C   UNL     1     -10.161  -0.709 -15.621  0.00  0.00    +0.113 A 
ATOM      3  N   UNL     1      -9.740   0.569 -15.489  0.00  0.00    -0.237 NA
ATOM      4  C   UNL     1     -10.541   1.524 -16.006  0.00  0.00    +0.167 A 
ATOM      5  N   UNL     1     -10.105   2.829 -15.864  0.00  0.00    -0.265 N 
ATOM      6  H   UNL     1      -9.232   2.985 -15.385  0.00  0.00    +0.156 HD
ATOM      7  C   UNL     1     -10.809   3.889 -16.344  0.00  0.00    +0.256 C 
ATOM      8  O   UNL     1     -10.411   5.044 -16.208  0.00  0.00    -0.272 OA
ATOM      9  C   UNL     1     -12.113   3.546 -17.070  0.00  0.00    +0.325 C 
ATOM     10  O   UNL     1     -12.577   2.209 -17.172  0.00  0.00    -0.479 OA
ATOM     11  C   UNL     1     -11.747   1.262 -16.649  0.00  0.00    +0.161 A 
ATOM     12  C   UNL     1     -12.151  -0.063 -16.765  0.00  0.00    +0.051 A 
ENDROOT
TORSDOF 0
ENDMDL
MODEL 2
REMARK VINA RESULT:      -5.3      1.989      2.782
REMARK  Name = min_compound9.pdb
REMARK  0 active torsions:
REMARK  status: ('A' for Active; 'I' for Inactive)
REMARK                            x       y       z     vdW  Elec       q    Type
REMARK                         _______ _______ _______ _____ _____    ______ ____
ROOT
ATOM      1  C   UNL     1      -9.948   0.207 -15.555  0.00  0.00    +0.023 A 
ATOM      2  C   UNL     1     -10.074  -0.608 -16.669  0.00  0.00    +0.113 A 
ATOM      3  N   UNL     1     -10.840  -0.304 -17.741  0.00  0.00    -0.237 NA
ATOM      4  C   UNL     1     -11.509   0.866 -17.690  0.00  0.00    +0.167 A 
ATOM      5  N   UNL     1     -12.289   1.171 -18.792  0.00  0.00    -0.265 N 
ATOM      6  H   UNL     1     -12.303   0.512 -19.556  0.00  0.00    +0.156 HD
ATOM      7  C   UNL     1     -13.023   2.312 -18.872  0.00  0.00    +0.256 C 
ATOM      8  O   UNL     1     -13.709   2.572 -19.858  0.00  0.00    -0.272 OA
ATOM      9  C   UNL     1     -12.947   3.237 -17.654  0.00  0.00    +0.325 C 
ATOM     10  O   UNL     1     -12.110   2.941 -16.547  0.00  0.00    -0.479 OA
ATOM     11  C   UNL     1     -11.449   1.750 -16.619  0.00  0.00    +0.161 A 
ATOM     12  C   UNL     1     -10.650   1.408 -15.533  0.00  0.00    +0.051 A 
ENDROOT
TORSDOF 0
ENDMDL
MODEL 3
REMARK VINA RESULT:      -5.1      2.379      4.178
REMARK  Name = min_compound9.pdb
REMARK  0 active torsions:
REMARK  status: ('A' for Active; 'I' for Inactive)
REMARK                            x       y       z     vdW  Elec       q    Type
REMARK                         _______ _______ _______ _____ _____    ______ ____
ROOT
ATOM      1  C   UNL     1     -13.325   3.789 -16.612  0.00  0.00    +0.023 A 
ATOM      2  C   UNL     1     -13.604   3.216 -17.842  0.00  0.00    +0.113 A 
ATOM      3  N   UNL     1     -12.984   2.111 -18.315  0.00  0.00    -0.237 NA
ATOM      4  C   UNL     1     -12.045   1.560 -17.520  0.00  0.00    +0.167 A 
ATOM      5  N   UNL     1     -11.418   0.428 -18.009  0.00  0.00    -0.265 N 
ATOM      6  H   UNL     1     -11.702   0.086 -18.915  0.00  0.00    +0.156 HD
ATOM      7  C   UNL     1     -10.447  -0.225 -17.317  0.00  0.00    +0.256 C 
ATOM      8  O   UNL     1      -9.900  -1.232 -17.762  0.00  0.00    -0.272 OA
ATOM      9  C   UNL     1     -10.075   0.383 -15.961  0.00  0.00    +0.325 C 
ATOM     10  O   UNL     1     -10.754   1.518 -15.445  0.00  0.00    -0.479 OA
ATOM     11  C   UNL     1     -11.694   2.060 -16.270  0.00  0.00    +0.161 A 
ATOM     12  C   UNL     1     -12.352   3.197 -15.813  0.00  0.00    +0.051 A 
ENDROOT
TORSDOF 0
ENDMDL
MODEL 4
REMARK VINA RESULT:      -5.1      1.697      3.789
REMARK  Name = min_compound9.pdb
REMARK  0 active torsions:
REMARK  status: ('A' for Active; 'I' for Inactive)
REMARK                            x       y       z     vdW  Elec       q    Type
REMARK                         _______ _______ _______ _____ _____    ______ ____
ROOT
ATOM      1  C   UNL     1     -11.946   4.527 -17.381  0.00  0.00    +0.023 A 
ATOM      2  C   UNL     1     -11.031   4.655 -16.347  0.00  0.00    +0.113 A 
ATOM      3  N   UNL     1     -10.420   3.607 -15.750  0.00  0.00    -0.237 NA
ATOM      4  C   UNL     1     -10.741   2.380 -16.209  0.00  0.00    +0.167 A 
ATOM      5  N   UNL     1     -10.108   1.314 -15.595  0.00  0.00    -0.265 N 
ATOM      6  H   UNL     1      -9.450   1.517 -14.858  0.00  0.00    +0.156 HD
ATOM      7  C   UNL     1     -10.344   0.023 -15.952  0.00  0.00    +0.256 C 
ATOM      8  O   UNL     1      -9.772  -0.915 -15.400  0.00  0.00    -0.272 OA
ATOM      9  C   UNL     1     -11.370  -0.180 -17.069  0.00  0.00    +0.325 C 
ATOM     10  O   UNL     1     -11.982   0.920 -17.726  0.00  0.00    -0.479 OA
ATOM     11  C   UNL     1     -11.646   2.148 -17.240  0.00  0.00    +0.161 A 
ATOM     12  C   UNL     1     -12.256   3.248 -17.833  0.00  0.00    +0.051 A 
ENDROOT
TORSDOF 0
ENDMDL
MODEL 5
REMARK VINA RESULT:      -5.0     12.508     13.204
REMARK  Name = min_compound9.pdb
REMARK  0 active torsions:
REMARK  status: ('A' for Active; 'I' for Inactive)
REMARK                            x       y       z     vdW  Elec       q    Type
REMARK                         _______ _______ _______ _____ _____    ______ ____
ROOT
ATOM      1  C   UNL     1     -14.239   1.211  -6.370  0.00  0.00    +0.023 A 
ATOM      2  C   UNL     1     -14.610   0.037  -7.007  0.00  0.00    +0.113 A 
ATOM      3  N   UNL     1     -14.812  -1.135  -6.365  0.00  0.00    -0.237 NA
ATOM      4  C   UNL     1     -14.633  -1.129  -5.028  0.00  0.00    +0.167 A 
ATOM      5  N   UNL     1     -14.845  -2.333  -4.378  0.00  0.00    -0.265 N 
ATOM      6  H   UNL     1     -15.123  -3.126  -4.935  0.00  0.00    +0.156 HD
ATOM      7  C   UNL     1     -14.692  -2.472  -3.034  0.00  0.00    +0.256 C 
ATOM      8  O   UNL     1     -14.887  -3.546  -2.470  0.00  0.00    -0.272 OA
ATOM      9  C   UNL     1     -14.252  -1.213  -2.282  0.00  0.00    +0.325 C 
ATOM     10  O   UNL     1     -14.080   0.029  -2.948  0.00  0.00    -0.479 OA
ATOM     11  C   UNL     1     -14.261  -0.005  -4.299  0.00  0.00    +0.161 A 
ATOM     12  C   UNL     1     -14.063   1.186  -4.990  0.00  0.00    +0.051 A 
ENDROOT
TORSDOF 0
ENDMDL
MODEL 6
REMARK VINA RESULT:      -4.9     11.592     12.109
REMARK  Name = min_compound9.pdb
REMARK  0 active torsions:
REMARK  status: ('A' for Active; 'I' for Inactive)
REMARK                            x       y       z     vdW  Elec       q    Type
REMARK                         _______ _______ _______ _____ _____    ______ ____
ROOT
ATOM      1  C   UNL     1     -13.743   0.511  -3.065  0.00  0.00    +0.023 A 
ATOM      2  C   UNL     1     -14.352  -0.730  -2.954  0.00  0.00    +0.113 A 
ATOM      3  N   UNL     1     -15.054  -1.315  -3.950  0.00  0.00    -0.237 NA
ATOM      4  C   UNL     1     -15.150  -0.626  -5.105  0.00  0.00    +0.167 A 
ATOM      5  N   UNL     1     -15.867  -1.233  -6.121  0.00  0.00    -0.265 N 
ATOM      6  H   UNL     1     -16.263  -2.143  -5.940  0.00  0.00    +0.156 HD
ATOM      7  C   UNL     1     -16.051  -0.648  -7.334  0.00  0.00    +0.256 C 
ATOM      8  O   UNL     1     -16.688  -1.201  -8.229  0.00  0.00    -0.272 OA
ATOM      9  C   UNL     1     -15.426   0.740  -7.504  0.00  0.00    +0.325 C 
ATOM     10  O   UNL     1     -14.653   1.337  -6.474  0.00  0.00    -0.479 OA
ATOM     11  C   UNL     1     -14.576   0.624  -5.315  0.00  0.00    +0.161 A 
ATOM     12  C   UNL     1     -13.859   1.197  -4.270  0.00  0.00    +0.051 A 
ENDROOT
TORSDOF 0
ENDMDL
MODEL 7
REMARK VINA RESULT:      -4.6     11.807     12.352
REMARK  Name = min_compound9.pdb
REMARK  0 active torsions:
REMARK  status: ('A' for Active; 'I' for Inactive)
REMARK                            x       y       z     vdW  Elec       q    Type
REMARK                         _______ _______ _______ _____ _____    ______ ____
ROOT
ATOM      1  C   UNL     1     -13.771   2.181  -3.467  0.00  0.00    +0.023 A 
ATOM      2  C   UNL     1     -14.922   2.870  -3.815  0.00  0.00    +0.113 A 
ATOM      3  N   UNL     1     -15.827   2.419  -4.712  0.00  0.00    -0.237 NA
ATOM      4  C   UNL     1     -15.565   1.226  -5.285  0.00  0.00    +0.167 A 
ATOM      5  N   UNL     1     -16.498   0.770  -6.199  0.00  0.00    -0.265 N 
ATOM      6  H   UNL     1     -17.307   1.346  -6.374  0.00  0.00    +0.156 HD
ATOM      7  C   UNL     1     -16.355  -0.411  -6.858  0.00  0.00    +0.256 C 
ATOM      8  O   UNL     1     -17.194  -0.806  -7.665  0.00  0.00    -0.272 OA
ATOM      9  C   UNL     1     -15.084  -1.202  -6.536  0.00  0.00    +0.325 C 
ATOM     10  O   UNL     1     -14.154  -0.750  -5.563  0.00  0.00    -0.479 OA
ATOM     11  C   UNL     1     -14.439   0.460  -5.004  0.00  0.00    +0.161 A 
ATOM     12  C   UNL     1     -13.528   0.953  -4.075  0.00  0.00    +0.051 A 
ENDROOT
TORSDOF 0
ENDMDL
MODEL 8
REMARK VINA RESULT:      -4.6     13.694     14.322
REMARK  Name = min_compound9.pdb
REMARK  0 active torsions:
REMARK  status: ('A' for Active; 'I' for Inactive)
REMARK                            x       y       z     vdW  Elec       q    Type
REMARK                         _______ _______ _______ _____ _____    ______ ____
ROOT
ATOM      1  C   UNL     1     -13.606   2.256  -3.590  0.00  0.00    +0.023 A 
ATOM      2  C   UNL     1     -14.886   2.706  -3.873  0.00  0.00    +0.113 A 
ATOM      3  N   UNL     1     -15.981   1.913  -3.868  0.00  0.00    -0.237 NA
ATOM      4  C   UNL     1     -15.782   0.613  -3.568  0.00  0.00    +0.167 A 
ATOM      5  N   UNL     1     -16.909  -0.191  -3.562  0.00  0.00    -0.265 N 
ATOM      6  H   UNL     1     -17.796   0.239  -3.773  0.00  0.00    +0.156 HD
ATOM      7  C   UNL     1     -16.853  -1.521  -3.284  0.00  0.00    +0.256 C 
ATOM      8  O   UNL     1     -17.862  -2.223  -3.280  0.00  0.00    -0.272 OA
ATOM      9  C   UNL     1     -15.457  -2.081  -2.994  0.00  0.00    +0.325 C 
ATOM     10  O   UNL     1     -14.313  -1.242  -2.957  0.00  0.00    -0.479 OA
ATOM     11  C   UNL     1     -14.539   0.066  -3.270  0.00  0.00    +0.161 A 
ATOM     12  C   UNL     1     -13.434   0.910  -3.282  0.00  0.00    +0.051 A 
ENDROOT
TORSDOF 0
ENDMDL
MODEL 9
REMARK VINA RESULT:      -4.5     13.428     13.649
REMARK  Name = min_compound9.pdb
REMARK  0 active torsions:
REMARK  status: ('A' for Active; 'I' for Inactive)
REMARK                            x       y       z     vdW  Elec       q    Type
REMARK                         _______ _______ _______ _____ _____    ______ ____
ROOT
ATOM      1  C   UNL     1     -13.366   1.163  -3.469  0.00  0.00    +0.023 A 
ATOM      2  C   UNL     1     -14.286   0.127  -3.519  0.00  0.00    +0.113 A 
ATOM      3  N   UNL     1     -15.614   0.307  -3.695  0.00  0.00    -0.237 NA
ATOM      4  C   UNL     1     -16.037   1.582  -3.824  0.00  0.00    +0.167 A 
ATOM      5  N   UNL     1     -17.397   1.758  -4.007  0.00  0.00    -0.265 N 
ATOM      6  H   UNL     1     -17.979   0.934  -4.038  0.00  0.00    +0.156 HD
ATOM      7  C   UNL     1     -17.961   2.988  -4.143  0.00  0.00    +0.256 C 
ATOM      8  O   UNL     1     -19.171   3.129  -4.307  0.00  0.00    -0.272 OA
ATOM      9  C   UNL     1     -16.996   4.173  -4.064  0.00  0.00    +0.325 C 
ATOM     10  O   UNL     1     -15.596   3.984  -3.923  0.00  0.00    -0.479 OA
ATOM     11  C   UNL     1     -15.194   2.688  -3.787  0.00  0.00    +0.161 A 
ATOM     12  C   UNL     1     -13.833   2.466  -3.607  0.00  0.00    +0.051 A 
ENDROOT
TORSDOF 0
ENDMDL
