MODEL 1
REMARK VINA RESULT:      -7.7      0.000      0.000
REMARK  Name = min_compound942.pdb
REMARK  3 active torsions:
REMARK  status: ('A' for Active; 'I' for Inactive)
REMARK    1  A    between atoms: _3  and  _12
REMARK    2  A    between atoms: _9  and  _13
REMARK    3  A    between atoms: _10  and  _14
REMARK                            x       y       z     vdW  Elec       q    Type
REMARK                         _______ _______ _______ _____ _____    ______ ____
ROOT
ATOM      1 CL   UNL     1     -17.269   5.258 -15.180  0.00  0.00    -0.076 Cl
ATOM      2  C   UNL     1     -15.714   4.619 -15.658  0.00  0.00    +0.126 A 
ATOM      3  C   UNL     1     -15.398   3.318 -15.415  0.00  0.00    +0.126 A 
ATOM      4  C   UNL     1     -16.291   2.316 -14.753  0.00  0.00    +0.088 C 
ATOM      5  O   UNL     1     -14.169   2.736 -15.768  0.00  0.00    -0.440 OA
ATOM      6  C   UNL     1     -13.205   3.486 -16.406  0.00  0.00    +0.234 A 
ATOM      7  N   UNL     1     -11.955   3.092 -16.854  0.00  0.00    -0.199 N 
ATOM      8  N   UNL     1     -11.314   4.305 -17.516  0.00  0.00    -0.168 NA
ATOM      9  C   UNL     1     -12.307   5.244 -17.356  0.00  0.00    +0.075 A 
ATOM     10  C   UNL     1     -12.006   6.592 -17.927  0.00  0.00    +0.068 C 
ATOM     11  C   UNL     1     -13.453   4.883 -16.722  0.00  0.00    +0.108 A 
ATOM     12  C   UNL     1     -14.725   5.473 -16.328  0.00  0.00    +0.214 A 
ATOM     13  O   UNL     1     -14.965   6.700 -16.486  0.00  0.00    -0.285 OA
ENDROOT
BRANCH   7  14
ATOM     14  C   UNL     1     -11.316   1.831 -16.770  0.00  0.00    +0.069 A 
ATOM     15  C   UNL     1     -11.347   0.885 -17.803  0.00  0.00    +0.028 A 
ATOM     16  C   UNL     1     -10.702  -0.355 -17.689  0.00  0.00    +0.002 A 
ATOM     17  C   UNL     1     -10.005  -0.678 -16.530  0.00  0.00    +0.000 A 
ATOM     18  C   UNL     1      -9.957   0.240 -15.485  0.00  0.00    +0.002 A 
ATOM     19  C   UNL     1     -10.605   1.474 -15.611  0.00  0.00    +0.028 A 
ENDBRANCH   7  14
TORSDOF 1
ENDMDL
MODEL 2
REMARK VINA RESULT:      -7.4      2.026      2.308
REMARK  Name = min_compound942.pdb
REMARK  3 active torsions:
REMARK  status: ('A' for Active; 'I' for Inactive)
REMARK    1  A    between atoms: _3  and  _12
REMARK    2  A    between atoms: _9  and  _13
REMARK    3  A    between atoms: _10  and  _14
REMARK                            x       y       z     vdW  Elec       q    Type
REMARK                         _______ _______ _______ _____ _____    ______ ____
ROOT
ATOM      1 CL   UNL     1     -16.530   5.802 -15.747  0.00  0.00    -0.076 Cl
ATOM      2  C   UNL     1     -15.402   4.636 -16.397  0.00  0.00    +0.126 A 
ATOM      3  C   UNL     1     -14.572   3.943 -15.572  0.00  0.00    +0.126 A 
ATOM      4  C   UNL     1     -14.524   4.072 -14.080  0.00  0.00    +0.088 C 
ATOM      5  O   UNL     1     -13.639   2.994 -16.021  0.00  0.00    -0.440 OA
ATOM      6  C   UNL     1     -13.532   2.712 -17.365  0.00  0.00    +0.234 A 
ATOM      7  N   UNL     1     -12.702   1.800 -17.997  0.00  0.00    -0.199 N 
ATOM      8  N   UNL     1     -13.014   1.867 -19.487  0.00  0.00    -0.168 NA
ATOM      9  C   UNL     1     -14.002   2.825 -19.502  0.00  0.00    +0.075 A 
ATOM     10  C   UNL     1     -14.567   3.134 -20.851  0.00  0.00    +0.068 C 
ATOM     11  C   UNL     1     -14.385   3.390 -18.328  0.00  0.00    +0.108 A 
ATOM     12  C   UNL     1     -15.331   4.386 -17.842  0.00  0.00    +0.214 A 
ATOM     13  O   UNL     1     -16.029   5.077 -18.631  0.00  0.00    -0.285 OA
ENDROOT
BRANCH   7  14
ATOM     14  C   UNL     1     -11.731   0.925 -17.451  0.00  0.00    +0.069 A 
ATOM     15  C   UNL     1     -12.058  -0.194 -16.674  0.00  0.00    +0.028 A 
ATOM     16  C   UNL     1     -11.072  -1.043 -16.148  0.00  0.00    +0.002 A 
ATOM     17  C   UNL     1      -9.727  -0.787 -16.392  0.00  0.00    +0.000 A 
ATOM     18  C   UNL     1      -9.370   0.318 -17.158  0.00  0.00    +0.002 A 
ATOM     19  C   UNL     1     -10.363   1.156 -17.677  0.00  0.00    +0.028 A 
ENDBRANCH   7  14
TORSDOF 1
ENDMDL
MODEL 3
REMARK VINA RESULT:      -7.4      3.134      3.613
REMARK  Name = min_compound942.pdb
REMARK  3 active torsions:
REMARK  status: ('A' for Active; 'I' for Inactive)
REMARK    1  A    between atoms: _3  and  _12
REMARK    2  A    between atoms: _9  and  _13
REMARK    3  A    between atoms: _10  and  _14
REMARK                            x       y       z     vdW  Elec       q    Type
REMARK                         _______ _______ _______ _____ _____    ______ ____
ROOT
ATOM      1 CL   UNL     1     -15.484   4.256 -22.385  0.00  0.00    -0.076 Cl
ATOM      2  C   UNL     1     -14.460   3.777 -21.052  0.00  0.00    +0.126 A 
ATOM      3  C   UNL     1     -14.101   2.475 -20.890  0.00  0.00    +0.126 A 
ATOM      4  C   UNL     1     -14.503   1.345 -21.785  0.00  0.00    +0.088 C 
ATOM      5  O   UNL     1     -13.284   2.017 -19.842  0.00  0.00    -0.440 OA
ATOM      6  C   UNL     1     -12.790   2.903 -18.911  0.00  0.00    +0.234 A 
ATOM      7  N   UNL     1     -11.956   2.654 -17.833  0.00  0.00    -0.199 N 
ATOM      8  N   UNL     1     -11.693   3.991 -17.153  0.00  0.00    -0.168 NA
ATOM      9  C   UNL     1     -12.423   4.839 -17.953  0.00  0.00    +0.075 A 
ATOM     10  C   UNL     1     -12.369   6.282 -17.568  0.00  0.00    +0.068 C 
ATOM     11  C   UNL     1     -13.106   4.319 -19.006  0.00  0.00    +0.108 A 
ATOM     12  C   UNL     1     -13.972   4.770 -20.087  0.00  0.00    +0.214 A 
ATOM     13  O   UNL     1     -14.362   5.966 -20.170  0.00  0.00    -0.285 OA
ENDROOT
BRANCH   7  14
ATOM     14  C   UNL     1     -11.398   1.434 -17.379  0.00  0.00    +0.069 A 
ATOM     15  C   UNL     1     -12.160   0.412 -16.798  0.00  0.00    +0.028 A 
ATOM     16  C   UNL     1     -11.577  -0.787 -16.360  0.00  0.00    +0.002 A 
ATOM     17  C   UNL     1     -10.208  -0.990 -16.496  0.00  0.00    +0.000 A 
ATOM     18  C   UNL     1      -9.425   0.007 -17.068  0.00  0.00    +0.002 A 
ATOM     19  C   UNL     1     -10.018   1.199 -17.501  0.00  0.00    +0.028 A 
ENDBRANCH   7  14
TORSDOF 1
ENDMDL
MODEL 4
REMARK VINA RESULT:      -7.2      1.718      3.256
REMARK  Name = min_compound942.pdb
REMARK  3 active torsions:
REMARK  status: ('A' for Active; 'I' for Inactive)
REMARK    1  A    between atoms: _3  and  _12
REMARK    2  A    between atoms: _9  and  _13
REMARK    3  A    between atoms: _10  and  _14
REMARK                            x       y       z     vdW  Elec       q    Type
REMARK                         _______ _______ _______ _____ _____    ______ ____
ROOT
ATOM      1 CL   UNL     1     -14.525   7.945 -17.237  0.00  0.00    -0.076 Cl
ATOM      2  C   UNL     1     -14.134   6.255 -17.024  0.00  0.00    +0.126 A 
ATOM      3  C   UNL     1     -12.917   5.776 -17.396  0.00  0.00    +0.126 A 
ATOM      4  C   UNL     1     -11.809   6.586 -17.994  0.00  0.00    +0.088 C 
ATOM      5  O   UNL     1     -12.533   4.431 -17.257  0.00  0.00    -0.440 OA
ATOM      6  C   UNL     1     -13.405   3.515 -16.710  0.00  0.00    +0.234 A 
ATOM      7  N   UNL     1     -13.206   2.166 -16.468  0.00  0.00    -0.199 N 
ATOM      8  N   UNL     1     -14.479   1.635 -15.820  0.00  0.00    -0.168 NA
ATOM      9  C   UNL     1     -15.245   2.777 -15.778  0.00  0.00    +0.075 A 
ATOM     10  C   UNL     1     -16.597   2.613 -15.163  0.00  0.00    +0.068 C 
ATOM     11  C   UNL     1     -14.725   3.932 -16.269  0.00  0.00    +0.108 A 
ATOM     12  C   UNL     1     -15.112   5.327 -16.441  0.00  0.00    +0.214 A 
ATOM     13  O   UNL     1     -16.273   5.732 -16.169  0.00  0.00    -0.285 OA
ENDROOT
BRANCH   7  14
ATOM     14  C   UNL     1     -12.075   1.354 -16.725  0.00  0.00    +0.069 A 
ATOM     15  C   UNL     1     -12.087  -0.041 -16.598  0.00  0.00    +0.028 A 
ATOM     16  C   UNL     1     -10.949  -0.818 -16.863  0.00  0.00    +0.002 A 
ATOM     17  C   UNL     1      -9.765  -0.210 -17.264  0.00  0.00    +0.000 A 
ATOM     18  C   UNL     1      -9.720   1.174 -17.397  0.00  0.00    +0.002 A 
ATOM     19  C   UNL     1     -10.862   1.938 -17.130  0.00  0.00    +0.028 A 
ENDBRANCH   7  14
TORSDOF 1
ENDMDL
MODEL 5
REMARK VINA RESULT:      -6.9      2.805      3.600
REMARK  Name = min_compound942.pdb
REMARK  3 active torsions:
REMARK  status: ('A' for Active; 'I' for Inactive)
REMARK    1  A    between atoms: _3  and  _12
REMARK    2  A    between atoms: _9  and  _13
REMARK    3  A    between atoms: _10  and  _14
REMARK                            x       y       z     vdW  Elec       q    Type
REMARK                         _______ _______ _______ _____ _____    ______ ____
ROOT
ATOM      1 CL   UNL     1     -15.979   4.138 -21.560  0.00  0.00    -0.076 Cl
ATOM      2  C   UNL     1     -15.156   3.580 -20.123  0.00  0.00    +0.126 A 
ATOM      3  C   UNL     1     -14.199   2.617 -20.205  0.00  0.00    +0.126 A 
ATOM      4  C   UNL     1     -13.741   1.952 -21.466  0.00  0.00    +0.088 C 
ATOM      5  O   UNL     1     -13.497   2.118 -19.094  0.00  0.00    -0.440 OA
ATOM      6  C   UNL     1     -13.757   2.610 -17.834  0.00  0.00    +0.234 A 
ATOM      7  N   UNL     1     -13.161   2.271 -16.630  0.00  0.00    -0.199 N 
ATOM      8  N   UNL     1     -13.799   3.140 -15.554  0.00  0.00    -0.168 NA
ATOM      9  C   UNL     1     -14.688   3.874 -16.305  0.00  0.00    +0.075 A 
ATOM     10  C   UNL     1     -15.494   4.874 -15.540  0.00  0.00    +0.068 C 
ATOM     11  C   UNL     1     -14.754   3.651 -17.643  0.00  0.00    +0.108 A 
ATOM     12  C   UNL     1     -15.485   4.140 -18.806  0.00  0.00    +0.214 A 
ATOM     13  O   UNL     1     -16.426   4.970 -18.697  0.00  0.00    -0.285 OA
ENDROOT
BRANCH   7  14
ATOM     14  C   UNL     1     -12.144   1.325 -16.356  0.00  0.00    +0.069 A 
ATOM     15  C   UNL     1     -10.939   1.656 -15.722  0.00  0.00    +0.028 A 
ATOM     16  C   UNL     1      -9.951   0.694 -15.462  0.00  0.00    +0.002 A 
ATOM     17  C   UNL     1     -10.151  -0.632 -15.834  0.00  0.00    +0.000 A 
ATOM     18  C   UNL     1     -11.337  -0.991 -16.466  0.00  0.00    +0.002 A 
ATOM     19  C   UNL     1     -12.314  -0.022 -16.720  0.00  0.00    +0.028 A 
ENDBRANCH   7  14
TORSDOF 1
ENDMDL
MODEL 6
REMARK VINA RESULT:      -6.8      2.035      2.126
REMARK  Name = min_compound942.pdb
REMARK  3 active torsions:
REMARK  status: ('A' for Active; 'I' for Inactive)
REMARK    1  A    between atoms: _3  and  _12
REMARK    2  A    between atoms: _9  and  _13
REMARK    3  A    between atoms: _10  and  _14
REMARK                            x       y       z     vdW  Elec       q    Type
REMARK                         _______ _______ _______ _____ _____    ______ ____
ROOT
ATOM      1 CL   UNL     1     -18.377   4.378 -15.775  0.00  0.00    -0.076 Cl
ATOM      2  C   UNL     1     -16.840   3.724 -16.290  0.00  0.00    +0.126 A 
ATOM      3  C   UNL     1     -16.058   3.031 -15.420  0.00  0.00    +0.126 A 
ATOM      4  C   UNL     1     -16.393   2.742 -13.990  0.00  0.00    +0.088 C 
ATOM      5  O   UNL     1     -14.811   2.479 -15.762  0.00  0.00    -0.440 OA
ATOM      6  C   UNL     1     -14.321   2.617 -17.042  0.00  0.00    +0.234 A 
ATOM      7  N   UNL     1     -13.140   2.129 -17.576  0.00  0.00    -0.199 N 
ATOM      8  N   UNL     1     -13.107   2.541 -19.042  0.00  0.00    -0.168 NA
ATOM      9  C   UNL     1     -14.299   3.219 -19.148  0.00  0.00    +0.075 A 
ATOM     10  C   UNL     1     -14.604   3.761 -20.508  0.00  0.00    +0.068 C 
ATOM     11  C   UNL     1     -15.089   3.330 -18.049  0.00  0.00    +0.108 A 
ATOM     12  C   UNL     1     -16.369   3.913 -17.668  0.00  0.00    +0.214 A 
ATOM     13  O   UNL     1     -17.038   4.624 -18.465  0.00  0.00    -0.285 OA
ENDROOT
BRANCH   7  14
ATOM     14  C   UNL     1     -12.109   1.375 -16.963  0.00  0.00    +0.069 A 
ATOM     15  C   UNL     1     -11.847   0.035 -17.278  0.00  0.00    +0.028 A 
ATOM     16  C   UNL     1     -10.817  -0.683 -16.653  0.00  0.00    +0.002 A 
ATOM     17  C   UNL     1     -10.020  -0.071 -15.692  0.00  0.00    +0.000 A 
ATOM     18  C   UNL     1     -10.257   1.258 -15.355  0.00  0.00    +0.002 A 
ATOM     19  C   UNL     1     -11.287   1.964 -15.986  0.00  0.00    +0.028 A 
ENDBRANCH   7  14
TORSDOF 1
ENDMDL
MODEL 7
REMARK VINA RESULT:      -6.3      8.403      9.898
REMARK  Name = min_compound942.pdb
REMARK  3 active torsions:
REMARK  status: ('A' for Active; 'I' for Inactive)
REMARK    1  A    between atoms: _3  and  _12
REMARK    2  A    between atoms: _9  and  _13
REMARK    3  A    between atoms: _10  and  _14
REMARK                            x       y       z     vdW  Elec       q    Type
REMARK                         _______ _______ _______ _____ _____    ______ ____
ROOT
ATOM      1 CL   UNL     1     -19.333   7.290  -5.906  0.00  0.00    -0.076 Cl
ATOM      2  C   UNL     1     -18.428   5.936  -6.542  0.00  0.00    +0.126 A 
ATOM      3  C   UNL     1     -18.239   4.818  -5.791  0.00  0.00    +0.126 A 
ATOM      4  C   UNL     1     -18.759   4.605  -4.403  0.00  0.00    +0.088 C 
ATOM      5  O   UNL     1     -17.522   3.694  -6.235  0.00  0.00    -0.440 OA
ATOM      6  C   UNL     1     -16.971   3.678  -7.497  0.00  0.00    +0.234 A 
ATOM      7  N   UNL     1     -16.259   2.666  -8.121  0.00  0.00    -0.199 N 
ATOM      8  N   UNL     1     -15.913   3.159  -9.519  0.00  0.00    -0.168 NA
ATOM      9  C   UNL     1     -16.488   4.409  -9.505  0.00  0.00    +0.075 A 
ATOM     10  C   UNL     1     -16.347   5.188 -10.773  0.00  0.00    +0.068 C 
ATOM     11  C   UNL     1     -17.129   4.821  -8.381  0.00  0.00    +0.108 A 
ATOM     12  C   UNL     1     -17.858   5.985  -7.894  0.00  0.00    +0.214 A 
ATOM     13  O   UNL     1     -17.949   7.043  -8.573  0.00  0.00    -0.285 OA
ENDROOT
BRANCH   7  14
ATOM     14  C   UNL     1     -15.888   1.387  -7.639  0.00  0.00    +0.069 A 
ATOM     15  C   UNL     1     -16.707   0.256  -7.755  0.00  0.00    +0.028 A 
ATOM     16  C   UNL     1     -16.309  -0.998  -7.269  0.00  0.00    +0.002 A 
ATOM     17  C   UNL     1     -15.072  -1.148  -6.650  0.00  0.00    +0.000 A 
ATOM     18  C   UNL     1     -14.238  -0.043  -6.517  0.00  0.00    +0.002 A 
ATOM     19  C   UNL     1     -14.646   1.202  -7.007  0.00  0.00    +0.028 A 
ENDBRANCH   7  14
TORSDOF 1
ENDMDL
MODEL 8
REMARK VINA RESULT:      -6.3      7.542      9.681
REMARK  Name = min_compound942.pdb
REMARK  3 active torsions:
REMARK  status: ('A' for Active; 'I' for Inactive)
REMARK    1  A    between atoms: _3  and  _12
REMARK    2  A    between atoms: _9  and  _13
REMARK    3  A    between atoms: _10  and  _14
REMARK                            x       y       z     vdW  Elec       q    Type
REMARK                         _______ _______ _______ _____ _____    ______ ____
ROOT
ATOM      1 CL   UNL     1     -17.015  -0.222  -4.980  0.00  0.00    -0.076 Cl
ATOM      2  C   UNL     1     -16.924   0.973  -6.253  0.00  0.00    +0.126 A 
ATOM      3  C   UNL     1     -16.632   0.603  -7.528  0.00  0.00    +0.126 A 
ATOM      4  C   UNL     1     -16.376  -0.798  -7.990  0.00  0.00    +0.088 C 
ATOM      5  O   UNL     1     -16.540   1.507  -8.601  0.00  0.00    -0.440 OA
ATOM      6  C   UNL     1     -16.757   2.851  -8.393  0.00  0.00    +0.234 A 
ATOM      7  N   UNL     1     -16.739   3.885  -9.315  0.00  0.00    -0.199 N 
ATOM      8  N   UNL     1     -17.078   5.164  -8.560  0.00  0.00    -0.168 NA
ATOM      9  C   UNL     1     -17.251   4.675  -7.286  0.00  0.00    +0.075 A 
ATOM     10  C   UNL     1     -17.624   5.695  -6.259  0.00  0.00    +0.068 C 
ATOM     11  C   UNL     1     -17.088   3.345  -7.067  0.00  0.00    +0.108 A 
ATOM     12  C   UNL     1     -17.158   2.394  -5.965  0.00  0.00    +0.214 A 
ATOM     13  O   UNL     1     -17.345   2.768  -4.777  0.00  0.00    -0.285 OA
ENDROOT
BRANCH   7  14
ATOM     14  C   UNL     1     -16.477   3.857 -10.707  0.00  0.00    +0.069 A 
ATOM     15  C   UNL     1     -15.422   4.559 -11.304  0.00  0.00    +0.028 A 
ATOM     16  C   UNL     1     -15.188   4.508 -12.686  0.00  0.00    +0.002 A 
ATOM     17  C   UNL     1     -16.012   3.747 -13.507  0.00  0.00    +0.000 A 
ATOM     18  C   UNL     1     -17.070   3.039 -12.945  0.00  0.00    +0.002 A 
ATOM     19  C   UNL     1     -17.292   3.098 -11.565  0.00  0.00    +0.028 A 
ENDBRANCH   7  14
TORSDOF 1
ENDMDL
MODEL 9
REMARK VINA RESULT:      -6.2      7.340      9.174
REMARK  Name = min_compound942.pdb
REMARK  3 active torsions:
REMARK  status: ('A' for Active; 'I' for Inactive)
REMARK    1  A    between atoms: _3  and  _12
REMARK    2  A    between atoms: _9  and  _13
REMARK    3  A    between atoms: _10  and  _14
REMARK                            x       y       z     vdW  Elec       q    Type
REMARK                         _______ _______ _______ _____ _____    ______ ____
ROOT
ATOM      1 CL   UNL     1     -16.706   6.896 -12.346  0.00  0.00    -0.076 Cl
ATOM      2  C   UNL     1     -16.736   5.758 -11.020  0.00  0.00    +0.126 A 
ATOM      3  C   UNL     1     -16.380   4.460 -11.215  0.00  0.00    +0.126 A 
ATOM      4  C   UNL     1     -15.931   3.868 -12.516  0.00  0.00    +0.088 C 
ATOM      5  O   UNL     1     -16.382   3.489 -10.199  0.00  0.00    -0.440 OA
ATOM      6  C   UNL     1     -16.750   3.831  -8.917  0.00  0.00    +0.234 A 
ATOM      7  N   UNL     1     -16.791   3.035  -7.784  0.00  0.00    -0.199 N 
ATOM      8  N   UNL     1     -17.234   3.922  -6.628  0.00  0.00    -0.168 NA
ATOM      9  C   UNL     1     -17.386   5.129  -7.270  0.00  0.00    +0.075 A 
ATOM     10  C   UNL     1     -17.810   6.265  -6.396  0.00  0.00    +0.068 C 
ATOM     11  C   UNL     1     -17.134   5.198  -8.603  0.00  0.00    +0.108 A 
ATOM     12  C   UNL     1     -17.146   6.184  -9.676  0.00  0.00    +0.214 A 
ATOM     13  O   UNL     1     -17.561   7.359  -9.492  0.00  0.00    -0.285 OA
ENDROOT
BRANCH   7  14
ATOM     14  C   UNL     1     -16.487   1.660  -7.629  0.00  0.00    +0.069 A 
ATOM     15  C   UNL     1     -17.333   0.633  -8.071  0.00  0.00    +0.028 A 
ATOM     16  C   UNL     1     -17.002  -0.720  -7.905  0.00  0.00    +0.002 A 
ATOM     17  C   UNL     1     -15.809  -1.078  -7.288  0.00  0.00    +0.000 A 
ATOM     18  C   UNL     1     -14.949  -0.082  -6.837  0.00  0.00    +0.002 A 
ATOM     19  C   UNL     1     -15.290   1.265  -7.008  0.00  0.00    +0.028 A 
ENDBRANCH   7  14
TORSDOF 1
ENDMDL
