MODEL 1
REMARK VINA RESULT:      -5.5      0.000      0.000
REMARK  Name = min_compound99.pdb
REMARK  3 active torsions:
REMARK  status: ('A' for Active; 'I' for Inactive)
REMARK    1  A    between atoms: _8  and  _11
REMARK    2  A    between atoms: _9  and  _13
REMARK    3  A    between atoms: _10  and  _12
REMARK                            x       y       z     vdW  Elec       q    Type
REMARK                         _______ _______ _______ _____ _____    ______ ____
ROOT
ATOM      1  N   UNL     1     -10.081   1.768 -17.397  0.00  0.00    +0.006 NA
ATOM      2  C   UNL     1     -11.118   2.532 -17.229  0.00  0.00    +0.391 C 
ATOM      3  C   UNL     1     -12.475   1.979 -16.801  0.00  0.00    +0.137 C 
ATOM      4  C   UNL     1     -12.521   0.526 -16.621  0.00  0.00    +0.099 C 
ATOM      5  C   UNL     1     -11.307  -0.203 -16.825  0.00  0.00    +0.078 C 
ATOM      6  N   UNL     1     -13.512   2.739 -16.614  0.00  0.00    -0.269 NA
ATOM      7  C   UNL     1     -13.309   4.082 -16.825  0.00  0.00    +0.172 C 
ATOM      8  C   UNL     1     -14.455   5.006 -16.581  0.00  0.00    +0.041 C 
ATOM      9  C   UNL     1     -11.980   4.618 -17.270  0.00  0.00    +0.152 C 
ATOM     10  C   UNL     1     -11.843   6.103 -17.510  0.00  0.00    +0.093 C 
ATOM     11  N   UNL     1     -10.937   3.875 -17.467  0.00  0.00    -0.042 NA
ATOM     12  C   UNL     1     -10.165   0.416 -17.181  0.00  0.00    +0.311 C 
ENDROOT
BRANCH  12  13
ATOM     13  N   UNL     1      -9.023  -0.329 -17.354  0.00  0.00    -0.247 N 
ATOM     14  H   UNL     1      -8.423  -0.191 -16.541  0.00  0.00    +0.288 HD
ATOM     15  H   UNL     1      -8.541  -0.130 -18.223  0.00  0.00    +0.288 HD
ENDBRANCH  12  13
TORSDOF 1
ENDMDL
MODEL 2
REMARK VINA RESULT:      -5.5      1.146      4.431
REMARK  Name = min_compound99.pdb
REMARK  3 active torsions:
REMARK  status: ('A' for Active; 'I' for Inactive)
REMARK    1  A    between atoms: _8  and  _11
REMARK    2  A    between atoms: _9  and  _13
REMARK    3  A    between atoms: _10  and  _12
REMARK                            x       y       z     vdW  Elec       q    Type
REMARK                         _______ _______ _______ _____ _____    ______ ____
ROOT
ATOM      1  N   UNL     1     -11.050   4.356 -17.509  0.00  0.00    +0.006 NA
ATOM      2  C   UNL     1     -11.210   3.107 -17.195  0.00  0.00    +0.391 C 
ATOM      3  C   UNL     1     -12.524   2.570 -16.634  0.00  0.00    +0.137 C 
ATOM      4  C   UNL     1     -13.574   3.575 -16.453  0.00  0.00    +0.099 C 
ATOM      5  C   UNL     1     -13.278   4.918 -16.847  0.00  0.00    +0.078 C 
ATOM      6  N   UNL     1     -12.697   1.318 -16.334  0.00  0.00    -0.269 NA
ATOM      7  C   UNL     1     -11.616   0.499 -16.559  0.00  0.00    +0.172 C 
ATOM      8  C   UNL     1     -11.775  -0.957 -16.274  0.00  0.00    +0.041 C 
ATOM      9  C   UNL     1     -10.318   1.035 -17.088  0.00  0.00    +0.152 C 
ATOM     10  C   UNL     1      -9.166   0.078 -17.280  0.00  0.00    +0.093 C 
ATOM     11  N   UNL     1     -10.125   2.282 -17.386  0.00  0.00    -0.042 NA
ATOM     12  C   UNL     1     -12.076   5.253 -17.355  0.00  0.00    +0.311 C 
ENDROOT
BRANCH  12  13
ATOM     13  N   UNL     1     -11.845   6.556 -17.730  0.00  0.00    -0.247 N 
ATOM     14  H   UNL     1     -12.733   6.973 -18.008  0.00  0.00    +0.288 HD
ATOM     15  H   UNL     1     -11.138   6.647 -18.450  0.00  0.00    +0.288 HD
ENDBRANCH  12  13
TORSDOF 1
ENDMDL
MODEL 3
REMARK VINA RESULT:      -5.4      1.485      1.990
REMARK  Name = min_compound99.pdb
REMARK  3 active torsions:
REMARK  status: ('A' for Active; 'I' for Inactive)
REMARK    1  A    between atoms: _8  and  _11
REMARK    2  A    between atoms: _9  and  _13
REMARK    3  A    between atoms: _10  and  _12
REMARK                            x       y       z     vdW  Elec       q    Type
REMARK                         _______ _______ _______ _____ _____    ______ ____
ROOT
ATOM      1  N   UNL     1     -11.434   0.580 -17.954  0.00  0.00    +0.006 NA
ATOM      2  C   UNL     1     -12.119   1.621 -17.588  0.00  0.00    +0.391 C 
ATOM      3  C   UNL     1     -11.843   2.357 -16.280  0.00  0.00    +0.137 C 
ATOM      4  C   UNL     1     -10.771   1.783 -15.463  0.00  0.00    +0.099 C 
ATOM      5  C   UNL     1     -10.085   0.641 -15.982  0.00  0.00    +0.078 C 
ATOM      6  N   UNL     1     -12.512   3.409 -15.916  0.00  0.00    -0.269 NA
ATOM      7  C   UNL     1     -13.488   3.825 -16.791  0.00  0.00    +0.172 C 
ATOM      8  C   UNL     1     -14.256   5.056 -16.443  0.00  0.00    +0.041 C 
ATOM      9  C   UNL     1     -13.771   3.083 -18.064  0.00  0.00    +0.152 C 
ATOM     10  C   UNL     1     -14.880   3.583 -18.960  0.00  0.00    +0.093 C 
ATOM     11  N   UNL     1     -13.120   2.028 -18.441  0.00  0.00    -0.042 NA
ATOM     12  C   UNL     1     -10.415   0.102 -17.171  0.00  0.00    +0.311 C 
ENDROOT
BRANCH  12  13
ATOM     13  N   UNL     1      -9.716  -0.990 -17.631  0.00  0.00    -0.247 N 
ATOM     14  H   UNL     1      -8.733  -0.734 -17.703  0.00  0.00    +0.288 HD
ATOM     15  H   UNL     1     -10.080  -1.362 -18.501  0.00  0.00    +0.288 HD
ENDBRANCH  12  13
TORSDOF 1
ENDMDL
MODEL 4
REMARK VINA RESULT:      -5.4      1.829      2.493
REMARK  Name = min_compound99.pdb
REMARK  3 active torsions:
REMARK  status: ('A' for Active; 'I' for Inactive)
REMARK    1  A    between atoms: _8  and  _11
REMARK    2  A    between atoms: _9  and  _13
REMARK    3  A    between atoms: _10  and  _12
REMARK                            x       y       z     vdW  Elec       q    Type
REMARK                         _______ _______ _______ _____ _____    ______ ____
ROOT
ATOM      1  N   UNL     1     -12.200   1.459 -17.570  0.00  0.00    +0.006 NA
ATOM      2  C   UNL     1     -12.167   2.750 -17.709  0.00  0.00    +0.391 C 
ATOM      3  C   UNL     1     -11.338   3.645 -16.791  0.00  0.00    +0.137 C 
ATOM      4  C   UNL     1     -10.611   2.940 -15.733  0.00  0.00    +0.099 C 
ATOM      5  C   UNL     1     -10.721   1.514 -15.693  0.00  0.00    +0.078 C 
ATOM      6  N   UNL     1     -11.285   4.935 -16.934  0.00  0.00    -0.269 NA
ATOM      7  C   UNL     1     -12.025   5.448 -17.974  0.00  0.00    +0.172 C 
ATOM      8  C   UNL     1     -11.965   6.920 -18.211  0.00  0.00    +0.041 C 
ATOM      9  C   UNL     1     -12.857   4.566 -18.858  0.00  0.00    +0.152 C 
ATOM     10  C   UNL     1     -13.667   5.206 -19.960  0.00  0.00    +0.093 C 
ATOM     11  N   UNL     1     -12.928   3.279 -18.726  0.00  0.00    -0.042 NA
ATOM     12  C   UNL     1     -11.472   0.841 -16.586  0.00  0.00    +0.311 C 
ENDROOT
BRANCH  12  13
ATOM     13  N   UNL     1     -11.536  -0.531 -16.512  0.00  0.00    -0.247 N 
ATOM     14  H   UNL     1     -10.584  -0.895 -16.493  0.00  0.00    +0.288 HD
ATOM     15  H   UNL     1     -12.091  -0.947 -17.250  0.00  0.00    +0.288 HD
ENDBRANCH  12  13
TORSDOF 1
ENDMDL
MODEL 5
REMARK VINA RESULT:      -5.4      1.587      2.699
REMARK  Name = min_compound99.pdb
REMARK  3 active torsions:
REMARK  status: ('A' for Active; 'I' for Inactive)
REMARK    1  A    between atoms: _8  and  _11
REMARK    2  A    between atoms: _9  and  _13
REMARK    3  A    between atoms: _10  and  _12
REMARK                            x       y       z     vdW  Elec       q    Type
REMARK                         _______ _______ _______ _____ _____    ______ ____
ROOT
ATOM      1  N   UNL     1     -11.884   0.152 -16.920  0.00  0.00    +0.006 NA
ATOM      2  C   UNL     1     -12.490   1.266 -16.642  0.00  0.00    +0.391 C 
ATOM      3  C   UNL     1     -11.797   2.621 -16.758  0.00  0.00    +0.137 C 
ATOM      4  C   UNL     1     -10.396   2.563 -17.180  0.00  0.00    +0.099 C 
ATOM      5  C   UNL     1      -9.846   1.275 -17.468  0.00  0.00    +0.078 C 
ATOM      6  N   UNL     1     -12.403   3.740 -16.499  0.00  0.00    -0.269 NA
ATOM      7  C   UNL     1     -13.718   3.629 -16.113  0.00  0.00    +0.172 C 
ATOM      8  C   UNL     1     -14.475   4.887 -15.846  0.00  0.00    +0.041 C 
ATOM      9  C   UNL     1     -14.388   2.293 -15.976  0.00  0.00    +0.152 C 
ATOM     10  C   UNL     1     -15.826   2.249 -15.518  0.00  0.00    +0.093 C 
ATOM     11  N   UNL     1     -13.798   1.166 -16.224  0.00  0.00    -0.042 NA
ATOM     12  C   UNL     1     -10.580   0.153 -17.346  0.00  0.00    +0.311 C 
ENDROOT
BRANCH  12  13
ATOM     13  N   UNL     1     -10.008  -1.061 -17.647  0.00  0.00    -0.247 N 
ATOM     14  H   UNL     1     -10.572  -1.796 -17.222  0.00  0.00    +0.288 HD
ATOM     15  H   UNL     1      -9.033  -1.122 -17.377  0.00  0.00    +0.288 HD
ENDBRANCH  12  13
TORSDOF 1
ENDMDL
MODEL 6
REMARK VINA RESULT:      -5.3      1.180      5.028
REMARK  Name = min_compound99.pdb
REMARK  3 active torsions:
REMARK  status: ('A' for Active; 'I' for Inactive)
REMARK    1  A    between atoms: _8  and  _11
REMARK    2  A    between atoms: _9  and  _13
REMARK    3  A    between atoms: _10  and  _12
REMARK                            x       y       z     vdW  Elec       q    Type
REMARK                         _______ _______ _______ _____ _____    ______ ____
ROOT
ATOM      1  N   UNL     1     -13.538   3.355 -16.426  0.00  0.00    +0.006 NA
ATOM      2  C   UNL     1     -12.519   2.582 -16.646  0.00  0.00    +0.391 C 
ATOM      3  C   UNL     1     -11.199   3.114 -17.198  0.00  0.00    +0.137 C 
ATOM      4  C   UNL     1     -11.183   4.551 -17.483  0.00  0.00    +0.099 C 
ATOM      5  C   UNL     1     -12.368   5.296 -17.187  0.00  0.00    +0.078 C 
ATOM      6  N   UNL     1     -10.169   2.350 -17.404  0.00  0.00    -0.269 NA
ATOM      7  C   UNL     1     -10.341   1.023 -17.088  0.00  0.00    +0.172 C 
ATOM      8  C   UNL     1      -9.175   0.109 -17.263  0.00  0.00    +0.041 C 
ATOM      9  C   UNL     1     -11.648   0.501 -16.569  0.00  0.00    +0.152 C 
ATOM     10  C   UNL     1     -11.770  -0.975 -16.273  0.00  0.00    +0.093 C 
ATOM     11  N   UNL     1     -12.688   1.246 -16.363  0.00  0.00    -0.042 NA
ATOM     12  C   UNL     1     -13.463   4.702 -16.675  0.00  0.00    +0.311 C 
ENDROOT
BRANCH  12  13
ATOM     13  N   UNL     1     -14.573   5.465 -16.397  0.00  0.00    -0.247 N 
ATOM     14  H   UNL     1     -14.868   5.265 -15.443  0.00  0.00    +0.288 HD
ATOM     15  H   UNL     1     -15.324   5.339 -17.065  0.00  0.00    +0.288 HD
ENDBRANCH  12  13
TORSDOF 1
ENDMDL
MODEL 7
REMARK VINA RESULT:      -5.3      2.458      3.351
REMARK  Name = min_compound99.pdb
REMARK  3 active torsions:
REMARK  status: ('A' for Active; 'I' for Inactive)
REMARK    1  A    between atoms: _8  and  _11
REMARK    2  A    between atoms: _9  and  _13
REMARK    3  A    between atoms: _10  and  _12
REMARK                            x       y       z     vdW  Elec       q    Type
REMARK                         _______ _______ _______ _____ _____    ______ ____
ROOT
ATOM      1  N   UNL     1     -11.518   1.713 -16.938  0.00  0.00    +0.006 NA
ATOM      2  C   UNL     1     -12.089   2.480 -17.816  0.00  0.00    +0.391 C 
ATOM      3  C   UNL     1     -11.991   4.002 -17.754  0.00  0.00    +0.137 C 
ATOM      4  C   UNL     1     -11.230   4.525 -16.618  0.00  0.00    +0.099 C 
ATOM      5  C   UNL     1     -10.639   3.576 -15.725  0.00  0.00    +0.078 C 
ATOM      6  N   UNL     1     -12.545   4.775 -18.639  0.00  0.00    -0.269 NA
ATOM      7  C   UNL     1     -13.228   4.132 -19.645  0.00  0.00    +0.172 C 
ATOM      8  C   UNL     1     -13.846   4.971 -20.713  0.00  0.00    +0.041 C 
ATOM      9  C   UNL     1     -13.342   2.637 -19.688  0.00  0.00    +0.152 C 
ATOM     10  C   UNL     1     -14.134   2.005 -20.808  0.00  0.00    +0.093 C 
ATOM     11  N   UNL     1     -12.802   1.850 -18.811  0.00  0.00    -0.042 NA
ATOM     12  C   UNL     1     -10.784   2.250 -15.912  0.00  0.00    +0.311 C 
ENDROOT
BRANCH  12  13
ATOM     13  N   UNL     1     -10.186   1.379 -15.031  0.00  0.00    -0.247 N 
ATOM     14  H   UNL     1      -9.658   0.693 -15.568  0.00  0.00    +0.288 HD
ATOM     15  H   UNL     1     -10.840   0.943 -14.392  0.00  0.00    +0.288 HD
ENDBRANCH  12  13
TORSDOF 1
ENDMDL
MODEL 8
REMARK VINA RESULT:      -5.2      1.804      2.023
REMARK  Name = min_compound99.pdb
REMARK  3 active torsions:
REMARK  status: ('A' for Active; 'I' for Inactive)
REMARK    1  A    between atoms: _8  and  _11
REMARK    2  A    between atoms: _9  and  _13
REMARK    3  A    between atoms: _10  and  _12
REMARK                            x       y       z     vdW  Elec       q    Type
REMARK                         _______ _______ _______ _____ _____    ______ ____
ROOT
ATOM      1  N   UNL     1     -10.791   3.075 -16.128  0.00  0.00    +0.006 NA
ATOM      2  C   UNL     1     -11.478   3.646 -17.070  0.00  0.00    +0.391 C 
ATOM      3  C   UNL     1     -12.379   2.854 -18.013  0.00  0.00    +0.137 C 
ATOM      4  C   UNL     1     -12.388   1.407 -17.789  0.00  0.00    +0.099 C 
ATOM      5  C   UNL     1     -11.596   0.901 -16.711  0.00  0.00    +0.078 C 
ATOM      6  N   UNL     1     -13.083   3.420 -18.947  0.00  0.00    -0.269 NA
ATOM      7  C   UNL     1     -12.967   4.787 -19.032  0.00  0.00    +0.172 C 
ATOM      8  C   UNL     1     -13.788   5.494 -20.058  0.00  0.00    +0.041 C 
ATOM      9  C   UNL     1     -12.060   5.558 -18.118  0.00  0.00    +0.152 C 
ATOM     10  C   UNL     1     -11.962   7.056 -18.292  0.00  0.00    +0.093 C 
ATOM     11  N   UNL     1     -11.346   5.011 -17.186  0.00  0.00    -0.042 NA
ATOM     12  C   UNL     1     -10.860   1.719 -15.934  0.00  0.00    +0.311 C 
ENDROOT
BRANCH  12  13
ATOM     13  N   UNL     1     -10.125   1.184 -14.902  0.00  0.00    -0.247 N 
ATOM     14  H   UNL     1      -9.383   1.840 -14.663  0.00  0.00    +0.288 HD
ATOM     15  H   UNL     1      -9.767   0.257 -15.103  0.00  0.00    +0.288 HD
ENDBRANCH  12  13
TORSDOF 1
ENDMDL
MODEL 9
REMARK VINA RESULT:      -5.2     10.438     11.495
REMARK  Name = min_compound99.pdb
REMARK  3 active torsions:
REMARK  status: ('A' for Active; 'I' for Inactive)
REMARK    1  A    between atoms: _8  and  _11
REMARK    2  A    between atoms: _9  and  _13
REMARK    3  A    between atoms: _10  and  _12
REMARK                            x       y       z     vdW  Elec       q    Type
REMARK                         _______ _______ _______ _____ _____    ______ ____
ROOT
ATOM      1  N   UNL     1     -16.221  -0.793  -5.907  0.00  0.00    +0.006 NA
ATOM      2  C   UNL     1     -16.647   0.129  -6.715  0.00  0.00    +0.391 C 
ATOM      3  C   UNL     1     -15.698   1.088  -7.429  0.00  0.00    +0.137 C 
ATOM      4  C   UNL     1     -14.280   0.904  -7.110  0.00  0.00    +0.099 C 
ATOM      5  C   UNL     1     -13.937  -0.155  -6.212  0.00  0.00    +0.078 C 
ATOM      6  N   UNL     1     -16.116   2.001  -8.252  0.00  0.00    -0.269 NA
ATOM      7  C   UNL     1     -17.476   2.049  -8.446  0.00  0.00    +0.172 C 
ATOM      8  C   UNL     1     -18.006   3.050  -9.417  0.00  0.00    +0.041 C 
ATOM      9  C   UNL     1     -18.407   1.120  -7.724  0.00  0.00    +0.152 C 
ATOM     10  C   UNL     1     -19.892   1.253  -7.966  0.00  0.00    +0.093 C 
ATOM     11  N   UNL     1     -18.010   0.207  -6.894  0.00  0.00    -0.042 NA
ATOM     12  C   UNL     1     -14.879  -0.950  -5.668  0.00  0.00    +0.311 C 
ENDROOT
BRANCH  12  13
ATOM     13  N   UNL     1     -14.497  -1.962  -4.819  0.00  0.00    -0.247 N 
ATOM     14  H   UNL     1     -15.017  -2.802  -5.067  0.00  0.00    +0.288 HD
ATOM     15  H   UNL     1     -14.598  -1.724  -3.840  0.00  0.00    +0.288 HD
ENDBRANCH  12  13
TORSDOF 1
ENDMDL
