MODEL 1
REMARK VINA RESULT:      -6.5      0.000      0.000
REMARK  Name = min_compound920.pdb
REMARK  4 active torsions:
REMARK  status: ('A' for Active; 'I' for Inactive)
REMARK    1  A    between atoms: _6  and  _16
REMARK    2  A    between atoms: _10  and  _11
REMARK    3  A    between atoms: _12  and  _18
REMARK    4  A    between atoms: _16  and  _17
REMARK                            x       y       z     vdW  Elec       q    Type
REMARK                         _______ _______ _______ _____ _____    ______ ____
ROOT
ATOM      1  N   UNL     1     -13.659   3.825 -14.975  0.00  0.00    -0.307 N 
ATOM      2  H   UNL     1     -13.008   3.718 -14.210  0.00  0.00    +0.149 HD
ATOM      3  C   UNL     1     -13.541   3.010 -16.084  0.00  0.00    +0.254 C 
ATOM      4  O   UNL     1     -14.465   2.927 -16.892  0.00  0.00    -0.270 OA
ENDROOT
BRANCH   3   5
ATOM      5  C   UNL     1     -12.309   2.264 -16.201  0.00  0.00    +0.117 A 
ATOM      6  C   UNL     1     -10.961   2.573 -16.053  0.00  0.00    +0.081 A 
ATOM      7  C   UNL     1     -10.331   3.878 -15.731  0.00  0.00    +0.069 C 
ATOM      8  N   UNL     1     -10.095   1.499 -16.255  0.00  0.00    -0.146 NA
ATOM      9  N   UNL     1     -10.738   0.393 -16.577  0.00  0.00    -0.110 NA
ATOM     10  S   UNL     1     -12.390   0.604 -16.653  0.00  0.00    +0.041 S 
ENDBRANCH   3   5
BRANCH   1  11
ATOM     11  C   UNL     1     -14.903   4.512 -14.701  0.00  0.00    +0.144 C 
BRANCH  11  16
ATOM     12  C   UNL     1     -16.926   3.403 -11.017  0.00  0.00    +0.004 A 
ATOM     13  C   UNL     1     -17.335   2.879 -12.241  0.00  0.00    +0.020 A 
ATOM     14  C   UNL     1     -16.676   3.242 -13.422  0.00  0.00    +0.048 A 
ATOM     15 CL   UNL     1     -17.245   2.526 -14.891  0.00  0.00    -0.083 Cl
ATOM     16  C   UNL     1     -15.593   4.142 -13.409  0.00  0.00    +0.023 A 
ATOM     17  C   UNL     1     -15.197   4.637 -12.160  0.00  0.00    +0.129 A 
ATOM     18  F   UNL     1     -14.151   5.470 -12.059  0.00  0.00    -0.205 F 
ATOM     19  C   UNL     1     -15.850   4.284 -10.979  0.00  0.00    +0.039 A 
ENDBRANCH  11  16
ENDBRANCH   1  11
TORSDOF 3
ENDMDL
MODEL 2
REMARK VINA RESULT:      -6.4      7.023      9.022
REMARK  Name = min_compound920.pdb
REMARK  4 active torsions:
REMARK  status: ('A' for Active; 'I' for Inactive)
REMARK    1  A    between atoms: _6  and  _16
REMARK    2  A    between atoms: _10  and  _11
REMARK    3  A    between atoms: _12  and  _18
REMARK    4  A    between atoms: _16  and  _17
REMARK                            x       y       z     vdW  Elec       q    Type
REMARK                         _______ _______ _______ _____ _____    ______ ____
ROOT
ATOM      1  N   UNL     1     -17.208   3.046  -6.823  0.00  0.00    -0.307 N 
ATOM      2  H   UNL     1     -17.275   3.866  -6.238  0.00  0.00    +0.149 HD
ATOM      3  C   UNL     1     -16.858   3.189  -8.152  0.00  0.00    +0.254 C 
ATOM      4  O   UNL     1     -16.503   2.211  -8.808  0.00  0.00    -0.270 OA
ENDROOT
BRANCH   3   5
ATOM      5  C   UNL     1     -16.906   4.531  -8.686  0.00  0.00    +0.117 A 
ATOM      6  C   UNL     1     -16.350   5.164  -9.793  0.00  0.00    +0.081 A 
ATOM      7  C   UNL     1     -15.442   4.609 -10.828  0.00  0.00    +0.069 C 
ATOM      8  N   UNL     1     -16.690   6.509  -9.923  0.00  0.00    -0.146 NA
ATOM      9  N   UNL     1     -17.464   6.926  -8.939  0.00  0.00    -0.110 NA
ATOM     10  S   UNL     1     -17.802   5.728  -7.830  0.00  0.00    +0.041 S 
ENDBRANCH   3   5
BRANCH   1  11
ATOM     11  C   UNL     1     -17.067   1.765  -6.164  0.00  0.00    +0.144 C 
BRANCH  11  16
ATOM     12  C   UNL     1     -13.397   1.143  -3.921  0.00  0.00    +0.004 A 
ATOM     13  C   UNL     1     -13.717   0.327  -5.003  0.00  0.00    +0.020 A 
ATOM     14  C   UNL     1     -14.902   0.537  -5.721  0.00  0.00    +0.048 A 
ATOM     15 CL   UNL     1     -15.206  -0.515  -7.060  0.00  0.00    -0.083 Cl
ATOM     16  C   UNL     1     -15.798   1.566  -5.370  0.00  0.00    +0.023 A 
ATOM     17  C   UNL     1     -15.437   2.376  -4.286  0.00  0.00    +0.129 A 
ATOM     18  F   UNL     1     -16.219   3.400  -3.913  0.00  0.00    -0.205 F 
ATOM     19  C   UNL     1     -14.261   2.173  -3.564  0.00  0.00    +0.039 A 
ENDBRANCH  11  16
ENDBRANCH   1  11
TORSDOF 3
ENDMDL
MODEL 3
REMARK VINA RESULT:      -6.3      4.251      6.681
REMARK  Name = min_compound920.pdb
REMARK  4 active torsions:
REMARK  status: ('A' for Active; 'I' for Inactive)
REMARK    1  A    between atoms: _6  and  _16
REMARK    2  A    between atoms: _10  and  _11
REMARK    3  A    between atoms: _12  and  _18
REMARK    4  A    between atoms: _16  and  _17
REMARK                            x       y       z     vdW  Elec       q    Type
REMARK                         _______ _______ _______ _____ _____    ______ ____
ROOT
ATOM      1  N   UNL     1     -14.779   5.792 -16.607  0.00  0.00    -0.307 N 
ATOM      2  H   UNL     1     -15.198   5.293 -15.836  0.00  0.00    +0.149 HD
ATOM      3  C   UNL     1     -14.692   7.170 -16.554  0.00  0.00    +0.254 C 
ATOM      4  O   UNL     1     -13.954   7.774 -17.330  0.00  0.00    -0.270 OA
ENDROOT
BRANCH   3   5
ATOM      5  C   UNL     1     -15.481   7.822 -15.533  0.00  0.00    +0.117 A 
ATOM      6  C   UNL     1     -15.906   7.474 -14.255  0.00  0.00    +0.081 A 
ATOM      7  C   UNL     1     -15.683   6.211 -13.508  0.00  0.00    +0.069 C 
ATOM      8  N   UNL     1     -16.659   8.452 -13.609  0.00  0.00    -0.146 NA
ATOM      9  N   UNL     1     -16.842   9.520 -14.362  0.00  0.00    -0.110 NA
ATOM     10  S   UNL     1     -16.127   9.385 -15.861  0.00  0.00    +0.041 S 
ENDBRANCH   3   5
BRANCH   1  11
ATOM     11  C   UNL     1     -13.930   5.040 -17.507  0.00  0.00    +0.144 C 
BRANCH  11  16
ATOM     12  C   UNL     1     -10.446   3.160 -15.713  0.00  0.00    +0.004 A 
ATOM     13  C   UNL     1     -11.681   2.515 -15.718  0.00  0.00    +0.020 A 
ATOM     14  C   UNL     1     -12.797   3.129 -16.300  0.00  0.00    +0.048 A 
ATOM     15 CL   UNL     1     -14.283   2.244 -16.274  0.00  0.00    -0.083 Cl
ATOM     16  C   UNL     1     -12.708   4.406 -16.888  0.00  0.00    +0.023 A 
ATOM     17  C   UNL     1     -11.448   5.019 -16.879  0.00  0.00    +0.129 A 
ATOM     18  F   UNL     1     -11.272   6.219 -17.452  0.00  0.00    -0.205 F 
ATOM     19  C   UNL     1     -10.332   4.416 -16.299  0.00  0.00    +0.039 A 
ENDBRANCH  11  16
ENDBRANCH   1  11
TORSDOF 3
ENDMDL
MODEL 4
REMARK VINA RESULT:      -6.3      6.877      8.852
REMARK  Name = min_compound920.pdb
REMARK  4 active torsions:
REMARK  status: ('A' for Active; 'I' for Inactive)
REMARK    1  A    between atoms: _6  and  _16
REMARK    2  A    between atoms: _10  and  _11
REMARK    3  A    between atoms: _12  and  _18
REMARK    4  A    between atoms: _16  and  _17
REMARK                            x       y       z     vdW  Elec       q    Type
REMARK                         _______ _______ _______ _____ _____    ______ ____
ROOT
ATOM      1  N   UNL     1     -17.180   3.183  -7.201  0.00  0.00    -0.307 N 
ATOM      2  H   UNL     1     -17.168   4.009  -6.620  0.00  0.00    +0.149 HD
ATOM      3  C   UNL     1     -16.849   3.290  -8.538  0.00  0.00    +0.254 C 
ATOM      4  O   UNL     1     -16.588   2.282  -9.194  0.00  0.00    -0.270 OA
ENDROOT
BRANCH   3   5
ATOM      5  C   UNL     1     -16.801   4.628  -9.080  0.00  0.00    +0.117 A 
ATOM      6  C   UNL     1     -16.153   5.224 -10.157  0.00  0.00    +0.081 A 
ATOM      7  C   UNL     1     -15.216   4.618 -11.136  0.00  0.00    +0.069 C 
ATOM      8  N   UNL     1     -16.419   6.583 -10.314  0.00  0.00    -0.146 NA
ATOM      9  N   UNL     1     -17.226   7.045  -9.377  0.00  0.00    -0.110 NA
ATOM     10  S   UNL     1     -17.684   5.874  -8.283  0.00  0.00    +0.041 S 
ENDBRANCH   3   5
BRANCH   1  11
ATOM     11  C   UNL     1     -17.128   1.899  -6.535  0.00  0.00    +0.144 C 
BRANCH  11  16
ATOM     12  C   UNL     1     -13.595   1.164  -4.113  0.00  0.00    +0.004 A 
ATOM     13  C   UNL     1     -14.607   2.006  -3.660  0.00  0.00    +0.020 A 
ATOM     14  C   UNL     1     -15.743   2.235  -4.447  0.00  0.00    +0.048 A 
ATOM     15 CL   UNL     1     -16.955   3.282  -3.793  0.00  0.00    -0.083 Cl
ATOM     16  C   UNL     1     -15.892   1.631  -5.711  0.00  0.00    +0.023 A 
ATOM     17  C   UNL     1     -14.862   0.778  -6.129  0.00  0.00    +0.129 A 
ATOM     18  F   UNL     1     -14.947   0.135  -7.303  0.00  0.00    -0.205 F 
ATOM     19  C   UNL     1     -13.727   0.546  -5.352  0.00  0.00    +0.039 A 
ENDBRANCH  11  16
ENDBRANCH   1  11
TORSDOF 3
ENDMDL
MODEL 5
REMARK VINA RESULT:      -6.2      3.490      6.578
REMARK  Name = min_compound920.pdb
REMARK  4 active torsions:
REMARK  status: ('A' for Active; 'I' for Inactive)
REMARK    1  A    between atoms: _6  and  _16
REMARK    2  A    between atoms: _10  and  _11
REMARK    3  A    between atoms: _12  and  _18
REMARK    4  A    between atoms: _16  and  _17
REMARK                            x       y       z     vdW  Elec       q    Type
REMARK                         _______ _______ _______ _____ _____    ______ ____
ROOT
ATOM      1  N   UNL     1     -13.936   3.605 -14.643  0.00  0.00    -0.307 N 
ATOM      2  H   UNL     1     -13.556   3.008 -13.922  0.00  0.00    +0.149 HD
ATOM      3  C   UNL     1     -14.955   4.483 -14.328  0.00  0.00    +0.254 C 
ATOM      4  O   UNL     1     -15.243   5.398 -15.098  0.00  0.00    -0.270 OA
ENDROOT
BRANCH   3   5
ATOM      5  C   UNL     1     -15.611   4.273 -13.058  0.00  0.00    +0.117 A 
ATOM      6  C   UNL     1     -16.804   3.676 -12.660  0.00  0.00    +0.081 A 
ATOM      7  C   UNL     1     -17.860   3.051 -13.495  0.00  0.00    +0.069 C 
ATOM      8  N   UNL     1     -17.028   3.692 -11.285  0.00  0.00    -0.146 NA
ATOM      9  N   UNL     1     -16.061   4.303 -10.628  0.00  0.00    -0.110 NA
ATOM     10  S   UNL     1     -14.861   4.879 -11.631  0.00  0.00    +0.041 S 
ENDBRANCH   3   5
BRANCH   1  11
ATOM     11  C   UNL     1     -13.134   3.810 -15.830  0.00  0.00    +0.144 C 
BRANCH  11  16
ATOM     12  C   UNL     1     -10.743   0.434 -17.162  0.00  0.00    +0.004 A 
ATOM     13  C   UNL     1     -10.167   1.689 -16.984  0.00  0.00    +0.020 A 
ATOM     14  C   UNL     1     -10.946   2.770 -16.553  0.00  0.00    +0.048 A 
ATOM     15 CL   UNL     1     -10.138   4.286 -16.344  0.00  0.00    -0.083 Cl
ATOM     16  C   UNL     1     -12.322   2.624 -16.293  0.00  0.00    +0.023 A 
ATOM     17  C   UNL     1     -12.866   1.345 -16.468  0.00  0.00    +0.129 A 
ATOM     18  F   UNL     1     -14.161   1.115 -16.205  0.00  0.00    -0.205 F 
ATOM     19  C   UNL     1     -12.098   0.263 -16.899  0.00  0.00    +0.039 A 
ENDBRANCH  11  16
ENDBRANCH   1  11
TORSDOF 3
ENDMDL
MODEL 6
REMARK VINA RESULT:      -6.2      4.193      6.695
REMARK  Name = min_compound920.pdb
REMARK  4 active torsions:
REMARK  status: ('A' for Active; 'I' for Inactive)
REMARK    1  A    between atoms: _6  and  _16
REMARK    2  A    between atoms: _10  and  _11
REMARK    3  A    between atoms: _12  and  _18
REMARK    4  A    between atoms: _16  and  _17
REMARK                            x       y       z     vdW  Elec       q    Type
REMARK                         _______ _______ _______ _____ _____    ______ ____
ROOT
ATOM      1  N   UNL     1     -15.189   5.338 -15.942  0.00  0.00    -0.307 N 
ATOM      2  H   UNL     1     -15.461   4.606 -15.302  0.00  0.00    +0.149 HD
ATOM      3  C   UNL     1     -15.305   6.658 -15.550  0.00  0.00    +0.254 C 
ATOM      4  O   UNL     1     -14.735   7.544 -16.184  0.00  0.00    -0.270 OA
ENDROOT
BRANCH   3   5
ATOM      5  C   UNL     1     -16.092   6.906 -14.363  0.00  0.00    +0.117 A 
ATOM      6  C   UNL     1     -16.076   6.418 -13.061  0.00  0.00    +0.081 A 
ATOM      7  C   UNL     1     -15.191   5.390 -12.458  0.00  0.00    +0.069 C 
ATOM      8  N   UNL     1     -17.043   6.971 -12.224  0.00  0.00    -0.146 NA
ATOM      9  N   UNL     1     -17.810   7.842 -12.853  0.00  0.00    -0.110 NA
ATOM     10  S   UNL     1     -17.401   8.021 -14.459  0.00  0.00    +0.041 S 
ENDBRANCH   3   5
BRANCH   1  11
ATOM     11  C   UNL     1     -14.318   4.975 -17.040  0.00  0.00    +0.144 C 
BRANCH  11  16
ATOM     12  C   UNL     1     -10.442   3.331 -15.961  0.00  0.00    +0.004 A 
ATOM     13  C   UNL     1     -10.538   4.541 -16.643  0.00  0.00    +0.020 A 
ATOM     14  C   UNL     1     -11.792   5.063 -16.985  0.00  0.00    +0.048 A 
ATOM     15 CL   UNL     1     -11.811   6.581 -17.815  0.00  0.00    -0.083 Cl
ATOM     16  C   UNL     1     -12.982   4.385 -16.657  0.00  0.00    +0.023 A 
ATOM     17  C   UNL     1     -12.849   3.178 -15.958  0.00  0.00    +0.129 A 
ATOM     18  F   UNL     1     -13.936   2.491 -15.576  0.00  0.00    -0.205 F 
ATOM     19  C   UNL     1     -11.604   2.650 -15.616  0.00  0.00    +0.039 A 
ENDBRANCH  11  16
ENDBRANCH   1  11
TORSDOF 3
ENDMDL
MODEL 7
REMARK VINA RESULT:      -6.1     11.726     13.267
REMARK  Name = min_compound920.pdb
REMARK  4 active torsions:
REMARK  status: ('A' for Active; 'I' for Inactive)
REMARK    1  A    between atoms: _6  and  _16
REMARK    2  A    between atoms: _10  and  _11
REMARK    3  A    between atoms: _12  and  _18
REMARK    4  A    between atoms: _16  and  _17
REMARK                            x       y       z     vdW  Elec       q    Type
REMARK                         _______ _______ _______ _____ _____    ______ ____
ROOT
ATOM      1  N   UNL     1     -14.354  -1.504  -2.609  0.00  0.00    -0.307 N 
ATOM      2  H   UNL     1     -13.483  -1.746  -3.061  0.00  0.00    +0.149 HD
ATOM      3  C   UNL     1     -15.280  -0.737  -3.290  0.00  0.00    +0.254 C 
ATOM      4  O   UNL     1     -16.439  -0.661  -2.885  0.00  0.00    -0.270 OA
ENDROOT
BRANCH   3   5
ATOM      5  C   UNL     1     -14.810  -0.082  -4.490  0.00  0.00    +0.117 A 
ATOM      6  C   UNL     1     -14.165   1.121  -4.758  0.00  0.00    +0.081 A 
ATOM      7  C   UNL     1     -13.760   2.194  -3.817  0.00  0.00    +0.069 C 
ATOM      8  N   UNL     1     -13.884   1.339  -6.106  0.00  0.00    -0.146 NA
ATOM      9  N   UNL     1     -14.317   0.356  -6.872  0.00  0.00    -0.110 NA
ATOM     10  S   UNL     1     -15.073  -0.852  -6.008  0.00  0.00    +0.041 S 
ENDBRANCH   3   5
BRANCH   1  11
ATOM     11  C   UNL     1     -14.760  -2.302  -1.472  0.00  0.00    +0.144 C 
BRANCH  11  16
ATOM     12  C   UNL     1     -14.304  -6.603  -1.899  0.00  0.00    +0.004 A 
ATOM     13  C   UNL     1     -15.528  -5.987  -2.151  0.00  0.00    +0.020 A 
ATOM     14  C   UNL     1     -15.664  -4.600  -2.012  0.00  0.00    +0.048 A 
ATOM     15 CL   UNL     1     -17.217  -3.924  -2.364  0.00  0.00    -0.083 Cl
ATOM     16  C   UNL     1     -14.580  -3.794  -1.612  0.00  0.00    +0.023 A 
ATOM     17  C   UNL     1     -13.360  -4.444  -1.382  0.00  0.00    +0.129 A 
ATOM     18  F   UNL     1     -12.271  -3.743  -1.035  0.00  0.00    -0.205 F 
ATOM     19  C   UNL     1     -13.217  -5.826  -1.516  0.00  0.00    +0.039 A 
ENDBRANCH  11  16
ENDBRANCH   1  11
TORSDOF 3
ENDMDL
MODEL 8
REMARK VINA RESULT:      -6.1      1.785      2.041
REMARK  Name = min_compound920.pdb
REMARK  4 active torsions:
REMARK  status: ('A' for Active; 'I' for Inactive)
REMARK    1  A    between atoms: _6  and  _16
REMARK    2  A    between atoms: _10  and  _11
REMARK    3  A    between atoms: _12  and  _18
REMARK    4  A    between atoms: _16  and  _17
REMARK                            x       y       z     vdW  Elec       q    Type
REMARK                         _______ _______ _______ _____ _____    ______ ____
ROOT
ATOM      1  N   UNL     1     -13.760   3.809 -15.437  0.00  0.00    -0.307 N 
ATOM      2  H   UNL     1     -13.207   3.790 -14.592  0.00  0.00    +0.149 HD
ATOM      3  C   UNL     1     -13.511   2.882 -16.431  0.00  0.00    +0.254 C 
ATOM      4  O   UNL     1     -14.329   2.704 -17.331  0.00  0.00    -0.270 OA
ENDROOT
BRANCH   3   5
ATOM      5  C   UNL     1     -12.276   2.140 -16.318  0.00  0.00    +0.117 A 
ATOM      6  C   UNL     1     -10.964   2.469 -15.993  0.00  0.00    +0.081 A 
ATOM      7  C   UNL     1     -10.387   3.797 -15.665  0.00  0.00    +0.069 C 
ATOM      8  N   UNL     1     -10.079   1.392 -15.996  0.00  0.00    -0.146 NA
ATOM      9  N   UNL     1     -10.669   0.262 -16.338  0.00  0.00    -0.110 NA
ATOM     10  S   UNL     1     -12.291   0.454 -16.669  0.00  0.00    +0.041 S 
ENDBRANCH   3   5
BRANCH   1  11
ATOM     11  C   UNL     1     -15.026   4.509 -15.391  0.00  0.00    +0.144 C 
BRANCH  11  16
ATOM     12  C   UNL     1     -17.493   3.806 -11.882  0.00  0.00    +0.004 A 
ATOM     13  C   UNL     1     -16.962   5.068 -12.138  0.00  0.00    +0.020 A 
ATOM     14  C   UNL     1     -16.169   5.284 -13.273  0.00  0.00    +0.048 A 
ATOM     15 CL   UNL     1     -15.568   6.888 -13.517  0.00  0.00    -0.083 Cl
ATOM     16  C   UNL     1     -15.885   4.242 -14.177  0.00  0.00    +0.023 A 
ATOM     17  C   UNL     1     -16.448   2.991 -13.897  0.00  0.00    +0.129 A 
ATOM     18  F   UNL     1     -16.255   1.957 -14.729  0.00  0.00    -0.205 F 
ATOM     19  C   UNL     1     -17.236   2.766 -12.767  0.00  0.00    +0.039 A 
ENDBRANCH  11  16
ENDBRANCH   1  11
TORSDOF 3
ENDMDL
MODEL 9
REMARK VINA RESULT:      -6.0      4.768      6.473
REMARK  Name = min_compound920.pdb
REMARK  4 active torsions:
REMARK  status: ('A' for Active; 'I' for Inactive)
REMARK    1  A    between atoms: _6  and  _16
REMARK    2  A    between atoms: _10  and  _11
REMARK    3  A    between atoms: _12  and  _18
REMARK    4  A    between atoms: _16  and  _17
REMARK                            x       y       z     vdW  Elec       q    Type
REMARK                         _______ _______ _______ _____ _____    ______ ____
ROOT
ATOM      1  N   UNL     1     -12.862   4.350 -17.575  0.00  0.00    -0.307 N 
ATOM      2  H   UNL     1     -13.763   4.022 -17.892  0.00  0.00    +0.149 HD
ATOM      3  C   UNL     1     -12.417   5.597 -17.969  0.00  0.00    +0.254 C 
ATOM      4  O   UNL     1     -11.473   6.130 -17.389  0.00  0.00    -0.270 OA
ENDROOT
BRANCH   3   5
ATOM      5  C   UNL     1     -13.141   6.222 -19.053  0.00  0.00    +0.117 A 
ATOM      6  C   UNL     1     -12.796   6.696 -20.314  0.00  0.00    +0.081 A 
ATOM      7  C   UNL     1     -11.463   6.732 -20.966  0.00  0.00    +0.069 C 
ATOM      8  N   UNL     1     -13.858   7.223 -21.046  0.00  0.00    -0.146 NA
ATOM      9  N   UNL     1     -14.993   7.188 -20.374  0.00  0.00    -0.110 NA
ATOM     10  S   UNL     1     -14.823   6.532 -18.851  0.00  0.00    +0.041 S 
ENDBRANCH   3   5
BRANCH   1  11
ATOM     11  C   UNL     1     -12.287   3.701 -16.416  0.00  0.00    +0.144 C 
BRANCH  11  16
ATOM     12  C   UNL     1     -10.741  -0.311 -17.056  0.00  0.00    +0.004 A 
ATOM     13  C   UNL     1     -12.049  -0.112 -16.621  0.00  0.00    +0.020 A 
ATOM     14  C   UNL     1     -12.537   1.185 -16.419  0.00  0.00    +0.048 A 
ATOM     15 CL   UNL     1     -14.180   1.333 -15.894  0.00  0.00    -0.083 Cl
ATOM     16  C   UNL     1     -11.729   2.316 -16.643  0.00  0.00    +0.023 A 
ATOM     17  C   UNL     1     -10.424   2.080 -17.096  0.00  0.00    +0.129 A 
ATOM     18  F   UNL     1      -9.603   3.106 -17.368  0.00  0.00    -0.205 F 
ATOM     19  C   UNL     1      -9.928   0.792 -17.296  0.00  0.00    +0.039 A 
ENDBRANCH  11  16
ENDBRANCH   1  11
TORSDOF 3
ENDMDL
