MODEL 1
REMARK VINA RESULT:      -7.5      0.000      0.000
REMARK  Name = min_compound912.pdb
REMARK  5 active torsions:
REMARK  status: ('A' for Active; 'I' for Inactive)
REMARK    1  A    between atoms: _2  and  _19
REMARK    2  A    between atoms: _4  and  _21
REMARK    3  A    between atoms: _12  and  _21
REMARK    4  A    between atoms: _16  and  _22
REMARK    5  A    between atoms: _19  and  _20
REMARK                            x       y       z     vdW  Elec       q    Type
REMARK                         _______ _______ _______ _____ _____    ______ ____
ROOT
ATOM      1  O   UNL     1     -12.811   2.019 -20.299  0.00  0.00    -0.270 OA
ATOM      2  C   UNL     1     -12.881   1.939 -19.074  0.00  0.00    +0.245 C 
ATOM      3  N   UNL     1     -12.265   0.902 -18.446  0.00  0.00    -0.297 N 
ATOM      4  H   UNL     1     -11.721   0.324 -19.075  0.00  0.00    +0.150 HD
ATOM      5  C   UNL     1     -11.994   0.846 -17.034  0.00  0.00    +0.087 C 
ATOM      6  C   UNL     1     -11.533  -0.572 -16.610  0.00  0.00    +0.037 C 
ATOM      7  C   UNL     1     -10.091  -0.417 -16.131  0.00  0.00    +0.003 C 
ATOM      8  C   UNL     1     -10.038   1.001 -15.595  0.00  0.00    +0.003 C 
ATOM      9  C   UNL     1     -10.827   1.778 -16.638  0.00  0.00    +0.037 C 
ATOM     10  S   UNL     1     -13.540   1.252 -16.167  0.00  0.00    -0.084 S 
ATOM     11  C   UNL     1     -13.928   2.800 -16.943  0.00  0.00    +0.077 C 
ATOM     12  C   UNL     1     -13.606   2.965 -18.254  0.00  0.00    +0.055 C 
ENDROOT
BRANCH  11  13
ATOM     13  N   UNL     1     -14.668   3.768 -16.243  0.00  0.00    -0.309 N 
ATOM     14  H   UNL     1     -14.249   4.694 -16.273  0.00  0.00    +0.153 HD
BRANCH  13  15
ATOM     15  C   UNL     1     -15.382   3.611 -15.028  0.00  0.00    +0.032 A 
ATOM     16  C   UNL     1     -16.592   2.919 -14.909  0.00  0.00    +0.023 A 
ATOM     17  C   UNL     1     -17.255   2.823 -13.684  0.00  0.00    +0.002 A 
ATOM     18  C   UNL     1     -16.723   3.433 -12.555  0.00  0.00    +0.003 A 
ATOM     19  C   UNL     1     -15.527   4.155 -12.638  0.00  0.00    -0.049 A 
ATOM     20  C   UNL     1     -15.029   4.781 -11.371  0.00  0.00    +0.044 C 
ATOM     21  C   UNL     1     -14.875   4.250 -13.879  0.00  0.00    +0.026 A 
ENDBRANCH  13  15
ENDBRANCH  11  13
BRANCH  12  22
ATOM     22  C   UNL     1     -13.964   4.170 -18.941  0.00  0.00    +0.121 C 
BRANCH  22  23
ATOM     23  N   UNL     1     -14.320   5.405 -19.623  0.00  0.00    -0.326 NA
ATOM     24  H   UNL     1     -13.509   5.756 -20.135  0.00  0.00    +0.119 HD
ATOM     25  H   UNL     1     -15.082   5.225 -20.275  0.00  0.00    +0.119 HD
ENDBRANCH  22  23
ENDBRANCH  12  22
TORSDOF 4
ENDMDL
MODEL 2
REMARK VINA RESULT:      -7.1     13.296     15.531
REMARK  Name = min_compound912.pdb
REMARK  5 active torsions:
REMARK  status: ('A' for Active; 'I' for Inactive)
REMARK    1  A    between atoms: _2  and  _19
REMARK    2  A    between atoms: _4  and  _21
REMARK    3  A    between atoms: _12  and  _21
REMARK    4  A    between atoms: _16  and  _22
REMARK    5  A    between atoms: _19  and  _20
REMARK                            x       y       z     vdW  Elec       q    Type
REMARK                         _______ _______ _______ _____ _____    ______ ____
ROOT
ATOM      1  O   UNL     1     -17.882  -3.961  -0.460  0.00  0.00    -0.270 OA
ATOM      2  C   UNL     1     -16.731  -4.005  -0.890  0.00  0.00    +0.245 C 
ATOM      3  N   UNL     1     -15.776  -4.629  -0.149  0.00  0.00    -0.297 N 
ATOM      4  H   UNL     1     -16.148  -5.082   0.677  0.00  0.00    +0.150 HD
ATOM      5  C   UNL     1     -14.488  -5.031  -0.649  0.00  0.00    +0.087 C 
ATOM      6  C   UNL     1     -13.551  -5.464   0.508  0.00  0.00    +0.037 C 
ATOM      7  C   UNL     1     -13.278  -6.950   0.291  0.00  0.00    +0.003 C 
ATOM      8  C   UNL     1     -13.377  -7.121  -1.213  0.00  0.00    +0.003 C 
ATOM      9  C   UNL     1     -14.591  -6.274  -1.562  0.00  0.00    +0.037 C 
ATOM     10  S   UNL     1     -13.762  -3.597  -1.498  0.00  0.00    -0.084 S 
ATOM     11  C   UNL     1     -15.078  -3.209  -2.624  0.00  0.00    +0.077 C 
ATOM     12  C   UNL     1     -16.359  -3.411  -2.216  0.00  0.00    +0.055 C 
ENDROOT
BRANCH  11  13
ATOM     13  N   UNL     1     -14.789  -2.587  -3.850  0.00  0.00    -0.309 N 
ATOM     14  H   UNL     1     -14.228  -3.164  -4.472  0.00  0.00    +0.153 HD
BRANCH  13  15
ATOM     15  C   UNL     1     -14.502  -1.219  -4.089  0.00  0.00    +0.032 A 
ATOM     16  C   UNL     1     -14.276  -0.274  -3.082  0.00  0.00    +0.023 A 
ATOM     17  C   UNL     1     -14.023   1.064  -3.386  0.00  0.00    +0.002 A 
ATOM     18  C   UNL     1     -14.004   1.485  -4.709  0.00  0.00    +0.003 A 
ATOM     19  C   UNL     1     -14.249   0.576  -5.744  0.00  0.00    -0.049 A 
ATOM     20  C   UNL     1     -14.212   1.119  -7.141  0.00  0.00    +0.044 C 
ATOM     21  C   UNL     1     -14.511  -0.766  -5.423  0.00  0.00    +0.026 A 
ENDBRANCH  13  15
ENDBRANCH  11  13
BRANCH  12  22
ATOM     22  C   UNL     1     -17.454  -3.047  -3.064  0.00  0.00    +0.121 C 
BRANCH  22  23
ATOM     23  N   UNL     1     -18.561  -2.691  -3.938  0.00  0.00    -0.326 NA
ATOM     24  H   UNL     1     -19.391  -3.220  -3.668  0.00  0.00    +0.119 HD
ATOM     25  H   UNL     1     -18.752  -1.693  -3.855  0.00  0.00    +0.119 HD
ENDBRANCH  22  23
ENDBRANCH  12  22
TORSDOF 4
ENDMDL
MODEL 3
REMARK VINA RESULT:      -7.0      2.215      2.524
REMARK  Name = min_compound912.pdb
REMARK  5 active torsions:
REMARK  status: ('A' for Active; 'I' for Inactive)
REMARK    1  A    between atoms: _2  and  _19
REMARK    2  A    between atoms: _4  and  _21
REMARK    3  A    between atoms: _12  and  _21
REMARK    4  A    between atoms: _16  and  _22
REMARK    5  A    between atoms: _19  and  _20
REMARK                            x       y       z     vdW  Elec       q    Type
REMARK                         _______ _______ _______ _____ _____    ______ ____
ROOT
ATOM      1  O   UNL     1     -11.903   6.689 -18.422  0.00  0.00    -0.270 OA
ATOM      2  C   UNL     1     -12.398   5.689 -17.905  0.00  0.00    +0.245 C 
ATOM      3  N   UNL     1     -11.732   4.507 -17.992  0.00  0.00    -0.297 N 
ATOM      4  H   UNL     1     -10.820   4.595 -18.422  0.00  0.00    +0.150 HD
ATOM      5  C   UNL     1     -12.017   3.347 -17.187  0.00  0.00    +0.087 C 
ATOM      6  C   UNL     1     -11.266   2.101 -17.720  0.00  0.00    +0.037 C 
ATOM      7  C   UNL     1     -10.280   1.707 -16.622  0.00  0.00    +0.003 C 
ATOM      8  C   UNL     1     -10.958   2.163 -15.345  0.00  0.00    +0.003 C 
ATOM      9  C   UNL     1     -11.517   3.522 -15.736  0.00  0.00    +0.037 C 
ATOM     10  S   UNL     1     -13.808   3.048 -17.281  0.00  0.00    -0.084 S 
ATOM     11  C   UNL     1     -14.411   4.645 -16.795  0.00  0.00    +0.077 C 
ATOM     12  C   UNL     1     -13.701   5.745 -17.164  0.00  0.00    +0.055 C 
ENDROOT
BRANCH  11  13
ATOM     13  N   UNL     1     -15.660   4.758 -16.161  0.00  0.00    -0.309 N 
ATOM     14  H   UNL     1     -16.110   5.657 -16.317  0.00  0.00    +0.153 HD
BRANCH  13  15
ATOM     15  C   UNL     1     -16.046   4.250 -14.895  0.00  0.00    +0.032 A 
ATOM     16  C   UNL     1     -17.084   3.332 -14.699  0.00  0.00    +0.023 A 
ATOM     17  C   UNL     1     -17.429   2.890 -13.420  0.00  0.00    +0.002 A 
ATOM     18  C   UNL     1     -16.747   3.371 -12.310  0.00  0.00    +0.003 A 
ATOM     19  C   UNL     1     -15.719   4.309 -12.463  0.00  0.00    -0.049 A 
ATOM     20  C   UNL     1     -15.041   4.775 -11.210  0.00  0.00    +0.044 C 
ATOM     21  C   UNL     1     -15.388   4.751 -13.754  0.00  0.00    +0.026 A 
ENDBRANCH  13  15
ENDBRANCH  11  13
BRANCH  12  22
ATOM     22  C   UNL     1     -14.186   7.056 -16.856  0.00  0.00    +0.121 C 
BRANCH  22  23
ATOM     23  N   UNL     1     -14.688   8.389 -16.561  0.00  0.00    -0.326 NA
ATOM     24  H   UNL     1     -14.805   8.909 -17.431  0.00  0.00    +0.119 HD
ATOM     25  H   UNL     1     -15.586   8.317 -16.084  0.00  0.00    +0.119 HD
ENDBRANCH  22  23
ENDBRANCH  12  22
TORSDOF 4
ENDMDL
MODEL 4
REMARK VINA RESULT:      -6.9      1.930      5.712
REMARK  Name = min_compound912.pdb
REMARK  5 active torsions:
REMARK  status: ('A' for Active; 'I' for Inactive)
REMARK    1  A    between atoms: _2  and  _19
REMARK    2  A    between atoms: _4  and  _21
REMARK    3  A    between atoms: _12  and  _21
REMARK    4  A    between atoms: _16  and  _22
REMARK    5  A    between atoms: _19  and  _20
REMARK                            x       y       z     vdW  Elec       q    Type
REMARK                         _______ _______ _______ _____ _____    ______ ____
ROOT
ATOM      1  O   UNL     1     -14.858   6.760 -17.639  0.00  0.00    -0.270 OA
ATOM      2  C   UNL     1     -14.468   5.722 -17.108  0.00  0.00    +0.245 C 
ATOM      3  N   UNL     1     -14.969   5.378 -15.891  0.00  0.00    -0.297 N 
ATOM      4  H   UNL     1     -15.702   5.999 -15.574  0.00  0.00    +0.150 HD
ATOM      5  C   UNL     1     -14.854   4.070 -15.301  0.00  0.00    +0.087 C 
ATOM      6  C   UNL     1     -15.289   4.091 -13.813  0.00  0.00    +0.037 C 
ATOM      7  C   UNL     1     -16.533   3.210 -13.729  0.00  0.00    +0.003 C 
ATOM      8  C   UNL     1     -16.335   2.196 -14.840  0.00  0.00    +0.003 C 
ATOM      9  C   UNL     1     -15.800   3.053 -15.977  0.00  0.00    +0.037 C 
ATOM     10  S   UNL     1     -13.107   3.578 -15.403  0.00  0.00    -0.084 S 
ATOM     11  C   UNL     1     -12.827   3.803 -17.142  0.00  0.00    +0.077 C 
ATOM     12  C   UNL     1     -13.476   4.817 -17.776  0.00  0.00    +0.055 C 
ENDROOT
BRANCH  11  13
ATOM     13  N   UNL     1     -11.857   3.029 -17.800  0.00  0.00    -0.309 N 
ATOM     14  H   UNL     1     -11.960   3.031 -18.812  0.00  0.00    +0.153 HD
BRANCH  13  15
ATOM     15  C   UNL     1     -11.295   1.795 -17.385  0.00  0.00    +0.032 A 
ATOM     16  C   UNL     1      -9.947   1.453 -17.541  0.00  0.00    +0.023 A 
ATOM     17  C   UNL     1      -9.464   0.209 -17.131  0.00  0.00    +0.002 A 
ATOM     18  C   UNL     1     -10.327  -0.723 -16.568  0.00  0.00    +0.003 A 
ATOM     19  C   UNL     1     -11.686  -0.427 -16.419  0.00  0.00    -0.049 A 
ATOM     20  C   UNL     1     -12.544  -1.492 -15.805  0.00  0.00    +0.044 C 
ATOM     21  C   UNL     1     -12.161   0.825 -16.843  0.00  0.00    +0.026 A 
ENDBRANCH  13  15
ENDBRANCH  11  13
BRANCH  12  22
ATOM     22  C   UNL     1     -13.227   5.080 -19.161  0.00  0.00    +0.121 C 
BRANCH  22  23
ATOM     23  N   UNL     1     -12.977   5.328 -20.573  0.00  0.00    -0.326 NA
ATOM     24  H   UNL     1     -13.310   6.261 -20.818  0.00  0.00    +0.119 HD
ATOM     25  H   UNL     1     -11.977   5.265 -20.757  0.00  0.00    +0.119 HD
ENDBRANCH  22  23
ENDBRANCH  12  22
TORSDOF 4
ENDMDL
MODEL 5
REMARK VINA RESULT:      -6.8      2.146      4.059
REMARK  Name = min_compound912.pdb
REMARK  5 active torsions:
REMARK  status: ('A' for Active; 'I' for Inactive)
REMARK    1  A    between atoms: _2  and  _19
REMARK    2  A    between atoms: _4  and  _21
REMARK    3  A    between atoms: _12  and  _21
REMARK    4  A    between atoms: _16  and  _22
REMARK    5  A    between atoms: _19  and  _20
REMARK                            x       y       z     vdW  Elec       q    Type
REMARK                         _______ _______ _______ _____ _____    ______ ____
ROOT
ATOM      1  O   UNL     1     -10.171   2.461 -17.164  0.00  0.00    -0.270 OA
ATOM      2  C   UNL     1     -11.192   3.144 -17.209  0.00  0.00    +0.245 C 
ATOM      3  N   UNL     1     -11.103   4.432 -17.638  0.00  0.00    -0.297 N 
ATOM      4  H   UNL     1     -10.177   4.677 -17.966  0.00  0.00    +0.150 HD
ATOM      5  C   UNL     1     -12.225   5.239 -18.038  0.00  0.00    +0.087 C 
ATOM      6  C   UNL     1     -11.812   6.723 -18.208  0.00  0.00    +0.037 C 
ATOM      7  C   UNL     1     -11.997   7.041 -19.690  0.00  0.00    +0.003 C 
ATOM      8  C   UNL     1     -13.123   6.121 -20.121  0.00  0.00    +0.003 C 
ATOM      9  C   UNL     1     -12.768   4.817 -19.422  0.00  0.00    +0.037 C 
ATOM     10  S   UNL     1     -13.478   5.117 -16.726  0.00  0.00    -0.084 S 
ATOM     11  C   UNL     1     -13.638   3.353 -16.619  0.00  0.00    +0.077 C 
ATOM     12  C   UNL     1     -12.533   2.589 -16.828  0.00  0.00    +0.055 C 
ENDROOT
BRANCH  11  13
ATOM     13  N   UNL     1     -14.852   2.784 -16.197  0.00  0.00    -0.309 N 
ATOM     14  H   UNL     1     -15.517   2.648 -16.955  0.00  0.00    +0.153 HD
BRANCH  13  15
ATOM     15  C   UNL     1     -15.555   3.023 -14.989  0.00  0.00    +0.032 A 
ATOM     16  C   UNL     1     -16.851   2.566 -14.729  0.00  0.00    +0.023 A 
ATOM     17  C   UNL     1     -17.496   2.858 -13.526  0.00  0.00    +0.002 A 
ATOM     18  C   UNL     1     -16.856   3.627 -12.562  0.00  0.00    +0.003 A 
ATOM     19  C   UNL     1     -15.568   4.124 -12.795  0.00  0.00    -0.049 A 
ATOM     20  C   UNL     1     -14.956   4.947 -11.702  0.00  0.00    +0.044 C 
ATOM     21  C   UNL     1     -14.935   3.829 -14.013  0.00  0.00    +0.026 A 
ENDBRANCH  13  15
ENDBRANCH  11  13
BRANCH  12  22
ATOM     22  C   UNL     1     -12.598   1.166 -16.681  0.00  0.00    +0.121 C 
BRANCH  22  23
ATOM     23  N   UNL     1     -12.660  -0.282 -16.552  0.00  0.00    -0.326 NA
ATOM     24  H   UNL     1     -13.088  -0.680 -17.388  0.00  0.00    +0.119 HD
ATOM     25  H   UNL     1     -11.717  -0.654 -16.443  0.00  0.00    +0.119 HD
ENDBRANCH  22  23
ENDBRANCH  12  22
TORSDOF 4
ENDMDL
MODEL 6
REMARK VINA RESULT:      -6.7      3.333      6.151
REMARK  Name = min_compound912.pdb
REMARK  5 active torsions:
REMARK  status: ('A' for Active; 'I' for Inactive)
REMARK    1  A    between atoms: _2  and  _19
REMARK    2  A    between atoms: _4  and  _21
REMARK    3  A    between atoms: _12  and  _21
REMARK    4  A    between atoms: _16  and  _22
REMARK    5  A    between atoms: _19  and  _20
REMARK                            x       y       z     vdW  Elec       q    Type
REMARK                         _______ _______ _______ _____ _____    ______ ____
ROOT
ATOM      1  O   UNL     1     -13.726   4.990 -21.688  0.00  0.00    -0.270 OA
ATOM      2  C   UNL     1     -13.681   4.943 -20.460  0.00  0.00    +0.245 C 
ATOM      3  N   UNL     1     -13.660   6.109 -19.759  0.00  0.00    -0.297 N 
ATOM      4  H   UNL     1     -13.770   6.927 -20.345  0.00  0.00    +0.150 HD
ATOM      5  C   UNL     1     -13.923   6.218 -18.348  0.00  0.00    +0.087 C 
ATOM      6  C   UNL     1     -13.555   7.628 -17.820  0.00  0.00    +0.037 C 
ATOM      7  C   UNL     1     -14.869   8.259 -17.364  0.00  0.00    +0.003 C 
ATOM      8  C   UNL     1     -15.712   7.073 -16.938  0.00  0.00    +0.003 C 
ATOM      9  C   UNL     1     -15.427   6.056 -18.032  0.00  0.00    +0.037 C 
ATOM     10  S   UNL     1     -12.893   4.980 -17.505  0.00  0.00    -0.084 S 
ATOM     11  C   UNL     1     -13.376   3.522 -18.395  0.00  0.00    +0.077 C 
ATOM     12  C   UNL     1     -13.674   3.640 -19.717  0.00  0.00    +0.055 C 
ENDROOT
BRANCH  11  13
ATOM     13  N   UNL     1     -13.318   2.267 -17.767  0.00  0.00    -0.309 N 
ATOM     14  H   UNL     1     -14.174   2.025 -17.272  0.00  0.00    +0.153 HD
BRANCH  13  15
ATOM     15  C   UNL     1     -12.211   1.666 -17.116  0.00  0.00    +0.032 A 
ATOM     16  C   UNL     1     -11.666   2.119 -15.910  0.00  0.00    +0.023 A 
ATOM     17  C   UNL     1     -10.557   1.494 -15.336  0.00  0.00    +0.002 A 
ATOM     18  C   UNL     1      -9.965   0.409 -15.968  0.00  0.00    +0.003 A 
ATOM     19  C   UNL     1     -10.465  -0.058 -17.188  0.00  0.00    -0.049 A 
ATOM     20  C   UNL     1      -9.762  -1.232 -17.800  0.00  0.00    +0.044 C 
ATOM     21  C   UNL     1     -11.576   0.585 -17.759  0.00  0.00    +0.026 A 
ENDBRANCH  13  15
ENDBRANCH  11  13
BRANCH  12  22
ATOM     22  C   UNL     1     -14.000   2.480 -20.491  0.00  0.00    +0.121 C 
BRANCH  22  23
ATOM     23  N   UNL     1     -14.311   1.298 -21.279  0.00  0.00    -0.326 NA
ATOM     24  H   UNL     1     -13.455   0.931 -21.694  0.00  0.00    +0.119 HD
ATOM     25  H   UNL     1     -14.728   0.589 -20.676  0.00  0.00    +0.119 HD
ENDBRANCH  22  23
ENDBRANCH  12  22
TORSDOF 4
ENDMDL
MODEL 7
REMARK VINA RESULT:      -6.6      3.238      6.010
REMARK  Name = min_compound912.pdb
REMARK  5 active torsions:
REMARK  status: ('A' for Active; 'I' for Inactive)
REMARK    1  A    between atoms: _2  and  _19
REMARK    2  A    between atoms: _4  and  _21
REMARK    3  A    between atoms: _12  and  _21
REMARK    4  A    between atoms: _16  and  _22
REMARK    5  A    between atoms: _19  and  _20
REMARK                            x       y       z     vdW  Elec       q    Type
REMARK                         _______ _______ _______ _____ _____    ______ ____
ROOT
ATOM      1  O   UNL     1     -14.696   3.682 -14.816  0.00  0.00    -0.270 OA
ATOM      2  C   UNL     1     -13.680   3.758 -15.504  0.00  0.00    +0.245 C 
ATOM      3  N   UNL     1     -12.715   2.811 -15.358  0.00  0.00    -0.297 N 
ATOM      4  H   UNL     1     -12.983   2.065 -14.727  0.00  0.00    +0.150 HD
ATOM      5  C   UNL     1     -11.641   2.588 -16.290  0.00  0.00    +0.087 C 
ATOM      6  C   UNL     1     -10.578   1.630 -15.696  0.00  0.00    +0.037 C 
ATOM      7  C   UNL     1     -10.610   0.377 -16.569  0.00  0.00    +0.003 C 
ATOM      8  C   UNL     1     -11.038   0.893 -17.929  0.00  0.00    +0.003 C 
ATOM      9  C   UNL     1     -12.136   1.885 -17.574  0.00  0.00    +0.037 C 
ATOM     10  S   UNL     1     -10.869   4.199 -16.626  0.00  0.00    -0.084 S 
ATOM     11  C   UNL     1     -12.301   5.128 -17.115  0.00  0.00    +0.077 C 
ATOM     12  C   UNL     1     -13.489   4.850 -16.514  0.00  0.00    +0.055 C 
ENDROOT
BRANCH  11  13
ATOM     13  N   UNL     1     -12.164   6.207 -18.005  0.00  0.00    -0.309 N 
ATOM     14  H   UNL     1     -12.616   7.058 -17.677  0.00  0.00    +0.153 HD
BRANCH  13  15
ATOM     15  C   UNL     1     -12.182   6.178 -19.422  0.00  0.00    +0.032 A 
ATOM     16  C   UNL     1     -12.809   5.184 -20.181  0.00  0.00    +0.023 A 
ATOM     17  C   UNL     1     -12.768   5.204 -21.577  0.00  0.00    +0.002 A 
ATOM     18  C   UNL     1     -12.084   6.215 -22.239  0.00  0.00    +0.003 A 
ATOM     19  C   UNL     1     -11.423   7.213 -21.515  0.00  0.00    -0.049 A 
ATOM     20  C   UNL     1     -10.708   8.262 -22.312  0.00  0.00    +0.044 C 
ATOM     21  C   UNL     1     -11.466   7.177 -20.111  0.00  0.00    +0.026 A 
ENDBRANCH  13  15
ENDBRANCH  11  13
BRANCH  12  22
ATOM     22  C   UNL     1     -14.655   5.622 -16.826  0.00  0.00    +0.121 C 
BRANCH  22  23
ATOM     23  N   UNL     1     -15.829   6.421 -17.136  0.00  0.00    -0.326 NA
ATOM     24  H   UNL     1     -16.014   7.067 -16.367  0.00  0.00    +0.119 HD
ATOM     25  H   UNL     1     -15.664   6.950 -17.992  0.00  0.00    +0.119 HD
ENDBRANCH  22  23
ENDBRANCH  12  22
TORSDOF 4
ENDMDL
MODEL 8
REMARK VINA RESULT:      -6.6      2.204      6.097
REMARK  Name = min_compound912.pdb
REMARK  5 active torsions:
REMARK  status: ('A' for Active; 'I' for Inactive)
REMARK    1  A    between atoms: _2  and  _19
REMARK    2  A    between atoms: _4  and  _21
REMARK    3  A    between atoms: _12  and  _21
REMARK    4  A    between atoms: _16  and  _22
REMARK    5  A    between atoms: _19  and  _20
REMARK                            x       y       z     vdW  Elec       q    Type
REMARK                         _______ _______ _______ _____ _____    ______ ____
ROOT
ATOM      1  O   UNL     1     -17.118   6.113 -17.008  0.00  0.00    -0.270 OA
ATOM      2  C   UNL     1     -16.470   5.303 -16.349  0.00  0.00    +0.245 C 
ATOM      3  N   UNL     1     -16.446   5.426 -14.995  0.00  0.00    -0.297 N 
ATOM      4  H   UNL     1     -17.058   6.156 -14.652  0.00  0.00    +0.150 HD
ATOM      5  C   UNL     1     -16.007   4.397 -14.089  0.00  0.00    +0.087 C 
ATOM      6  C   UNL     1     -15.852   4.951 -12.650  0.00  0.00    +0.037 C 
ATOM      7  C   UNL     1     -16.894   4.220 -11.806  0.00  0.00    +0.003 C 
ATOM      8  C   UNL     1     -17.040   2.877 -12.495  0.00  0.00    +0.003 C 
ATOM      9  C   UNL     1     -17.046   3.260 -13.967  0.00  0.00    +0.037 C 
ATOM     10  S   UNL     1     -14.390   3.809 -14.677  0.00  0.00    -0.084 S 
ATOM     11  C   UNL     1     -14.803   3.406 -16.355  0.00  0.00    +0.077 C 
ATOM     12  C   UNL     1     -15.726   4.172 -16.996  0.00  0.00    +0.055 C 
ENDROOT
BRANCH  11  13
ATOM     13  N   UNL     1     -14.087   2.403 -17.031  0.00  0.00    -0.309 N 
ATOM     14  H   UNL     1     -14.620   1.546 -17.159  0.00  0.00    +0.153 HD
BRANCH  13  15
ATOM     15  C   UNL     1     -12.709   2.090 -16.922  0.00  0.00    +0.032 A 
ATOM     16  C   UNL     1     -11.674   3.000 -17.164  0.00  0.00    +0.023 A 
ATOM     17  C   UNL     1     -10.335   2.619 -17.062  0.00  0.00    +0.002 A 
ATOM     18  C   UNL     1     -10.007   1.311 -16.730  0.00  0.00    +0.003 A 
ATOM     19  C   UNL     1     -11.013   0.365 -16.505  0.00  0.00    -0.049 A 
ATOM     20  C   UNL     1     -10.567  -1.023 -16.155  0.00  0.00    +0.044 C 
ATOM     21  C   UNL     1     -12.356   0.760 -16.619  0.00  0.00    +0.026 A 
ENDBRANCH  13  15
ENDBRANCH  11  13
BRANCH  12  22
ATOM     22  C   UNL     1     -16.038   3.928 -18.373  0.00  0.00    +0.121 C 
BRANCH  22  23
ATOM     23  N   UNL     1     -16.374   3.675 -19.765  0.00  0.00    -0.326 NA
ATOM     24  H   UNL     1     -16.858   2.780 -19.841  0.00  0.00    +0.119 HD
ATOM     25  H   UNL     1     -16.980   4.419 -20.109  0.00  0.00    +0.119 HD
ENDBRANCH  22  23
ENDBRANCH  12  22
TORSDOF 4
ENDMDL
MODEL 9
REMARK VINA RESULT:      -6.4      2.753      6.013
REMARK  Name = min_compound912.pdb
REMARK  5 active torsions:
REMARK  status: ('A' for Active; 'I' for Inactive)
REMARK    1  A    between atoms: _2  and  _19
REMARK    2  A    between atoms: _4  and  _21
REMARK    3  A    between atoms: _12  and  _21
REMARK    4  A    between atoms: _16  and  _22
REMARK    5  A    between atoms: _19  and  _20
REMARK                            x       y       z     vdW  Elec       q    Type
REMARK                         _______ _______ _______ _____ _____    ______ ____
ROOT
ATOM      1  O   UNL     1     -15.054   3.501 -14.520  0.00  0.00    -0.270 OA
ATOM      2  C   UNL     1     -14.332   3.307 -15.496  0.00  0.00    +0.245 C 
ATOM      3  N   UNL     1     -13.030   2.969 -15.294  0.00  0.00    -0.297 N 
ATOM      4  H   UNL     1     -12.804   2.827 -14.317  0.00  0.00    +0.150 HD
ATOM      5  C   UNL     1     -12.165   2.414 -16.301  0.00  0.00    +0.087 C 
ATOM      6  C   UNL     1     -10.691   2.398 -15.822  0.00  0.00    +0.037 C 
ATOM      7  C   UNL     1     -10.298   0.926 -15.724  0.00  0.00    +0.003 C 
ATOM      8  C   UNL     1     -11.156   0.251 -16.778  0.00  0.00    +0.003 C 
ATOM      9  C   UNL     1     -12.503   0.935 -16.593  0.00  0.00    +0.037 C 
ATOM     10  S   UNL     1     -12.300   3.468 -17.776  0.00  0.00    -0.084 S 
ATOM     11  C   UNL     1     -14.060   3.454 -18.002  0.00  0.00    +0.077 C 
ATOM     12  C   UNL     1     -14.854   3.410 -16.899  0.00  0.00    +0.055 C 
ENDROOT
BRANCH  11  13
ATOM     13  N   UNL     1     -14.602   3.618 -19.288  0.00  0.00    -0.309 N 
ATOM     14  H   UNL     1     -15.612   3.498 -19.318  0.00  0.00    +0.153 HD
BRANCH  13  15
ATOM     15  C   UNL     1     -14.042   3.221 -20.529  0.00  0.00    +0.032 A 
ATOM     16  C   UNL     1     -13.900   1.891 -20.939  0.00  0.00    +0.023 A 
ATOM     17  C   UNL     1     -13.317   1.569 -22.166  0.00  0.00    +0.002 A 
ATOM     18  C   UNL     1     -12.851   2.576 -23.001  0.00  0.00    +0.003 A 
ATOM     19  C   UNL     1     -12.952   3.918 -22.616  0.00  0.00    -0.049 A 
ATOM     20  C   UNL     1     -12.421   4.937 -23.578  0.00  0.00    +0.044 C 
ATOM     21  C   UNL     1     -13.534   4.227 -21.375  0.00  0.00    +0.026 A 
ENDBRANCH  13  15
ENDBRANCH  11  13
BRANCH  12  22
ATOM     22  C   UNL     1     -16.279   3.467 -17.030  0.00  0.00    +0.121 C 
BRANCH  22  23
ATOM     23  N   UNL     1     -17.727   3.507 -17.161  0.00  0.00    -0.326 NA
ATOM     24  H   UNL     1     -18.003   3.041 -18.026  0.00  0.00    +0.119 HD
ATOM     25  H   UNL     1     -18.153   3.029 -16.367  0.00  0.00    +0.119 HD
ENDBRANCH  22  23
ENDBRANCH  12  22
TORSDOF 4
ENDMDL
