MODEL 1
REMARK VINA RESULT:      -6.4      0.000      0.000
REMARK  Name = min_compound937.pdb
REMARK  8 active torsions:
REMARK  status: ('A' for Active; 'I' for Inactive)
REMARK    1  A    between atoms: _1  and  _2
REMARK    2  A    between atoms: _1  and  _10
REMARK    3  A    between atoms: _2  and  _17
REMARK    4  A    between atoms: _4  and  _17
REMARK    5  A    between atoms: _7  and  _18
REMARK    6  A    between atoms: _12  and  _15
REMARK    7  A    between atoms: _15  and  _16
REMARK    8  A    between atoms: _18  and  _19
REMARK                            x       y       z     vdW  Elec       q    Type
REMARK                         _______ _______ _______ _____ _____    ______ ____
ROOT
ATOM      1  N   UNL     1     -13.367   2.789 -17.952  0.00  0.00    -0.163 NA
ATOM      2  H   UNL     1     -12.434   2.784 -18.365  0.00  0.00    +0.168 HD
ENDROOT
BRANCH   1   3
ATOM      3  N   UNL     1     -13.396   2.009 -16.853  0.00  0.00    -0.261 N 
ATOM      4  H   UNL     1     -13.868   2.399 -16.043  0.00  0.00    +0.168 HD
BRANCH   3   5
ATOM      5  C   UNL     1     -12.251   1.254 -16.518  0.00  0.00    +0.084 A 
ATOM      6  C   UNL     1     -11.206   1.866 -15.791  0.00  0.00    +0.142 A 
ATOM      7  C   UNL     1     -10.102   1.110 -15.385  0.00  0.00    +0.047 A 
ATOM      8  C   UNL     1     -10.034  -0.253 -15.686  0.00  0.00    +0.004 A 
ATOM      9  C   UNL     1     -11.066  -0.867 -16.391  0.00  0.00    +0.002 A 
ATOM     10  C   UNL     1     -12.170  -0.118 -16.799  0.00  0.00    +0.028 A 
BRANCH   6  11
ATOM     11  O   UNL     1     -11.371   3.211 -15.550  0.00  0.00    -0.493 OA
ATOM     12  C   UNL     1     -10.232   4.043 -15.724  0.00  0.00    +0.277 C 
ENDBRANCH   6  11
ENDBRANCH   3   5
ENDBRANCH   1   3
BRANCH   1  13
ATOM     13  N   UNL     1     -13.664   3.936 -17.569  0.00  0.00    -0.261 N 
ATOM     14  H   UNL     1     -14.270   4.124 -16.817  0.00  0.00    +0.168 HD
BRANCH  13  15
ATOM     15  C   UNL     1     -13.029   4.935 -18.339  0.00  0.00    +0.084 A 
ATOM     16  C   UNL     1     -13.009   4.975 -19.746  0.00  0.00    +0.142 A 
ATOM     17  C   UNL     1     -12.420   6.049 -20.427  0.00  0.00    +0.047 A 
ATOM     18  C   UNL     1     -11.817   7.082 -19.713  0.00  0.00    +0.004 A 
ATOM     19  C   UNL     1     -11.815   7.054 -18.321  0.00  0.00    +0.002 A 
ATOM     20  C   UNL     1     -12.423   5.993 -17.643  0.00  0.00    +0.028 A 
BRANCH  16  21
ATOM     21  O   UNL     1     -13.648   4.003 -20.477  0.00  0.00    -0.493 OA
ATOM     22  C   UNL     1     -13.300   4.103 -21.859  0.00  0.00    +0.277 C 
ENDBRANCH  16  21
ENDBRANCH  13  15
ENDBRANCH   1  13
TORSDOF 6
ENDMDL
MODEL 2
REMARK VINA RESULT:      -6.3      3.842      4.894
REMARK  Name = min_compound937.pdb
REMARK  8 active torsions:
REMARK  status: ('A' for Active; 'I' for Inactive)
REMARK    1  A    between atoms: _1  and  _2
REMARK    2  A    between atoms: _1  and  _10
REMARK    3  A    between atoms: _2  and  _17
REMARK    4  A    between atoms: _4  and  _17
REMARK    5  A    between atoms: _7  and  _18
REMARK    6  A    between atoms: _12  and  _15
REMARK    7  A    between atoms: _15  and  _16
REMARK    8  A    between atoms: _18  and  _19
REMARK                            x       y       z     vdW  Elec       q    Type
REMARK                         _______ _______ _______ _____ _____    ______ ____
ROOT
ATOM      1  N   UNL     1     -14.483   2.208 -15.937  0.00  0.00    -0.163 NA
ATOM      2  H   UNL     1     -15.349   1.843 -16.334  0.00  0.00    +0.168 HD
ENDROOT
BRANCH   1   3
ATOM      3  N   UNL     1     -13.487   2.134 -16.842  0.00  0.00    -0.261 N 
ATOM      4  H   UNL     1     -13.774   2.045 -17.813  0.00  0.00    +0.168 HD
BRANCH   3   5
ATOM      5  C   UNL     1     -12.335   1.379 -16.533  0.00  0.00    +0.084 A 
ATOM      6  C   UNL     1     -11.293   1.979 -15.791  0.00  0.00    +0.142 A 
ATOM      7  C   UNL     1     -10.181   1.220 -15.411  0.00  0.00    +0.047 A 
ATOM      8  C   UNL     1     -10.103  -0.134 -15.752  0.00  0.00    +0.004 A 
ATOM      9  C   UNL     1     -11.132  -0.735 -16.471  0.00  0.00    +0.002 A 
ATOM     10  C   UNL     1     -12.243   0.017 -16.854  0.00  0.00    +0.028 A 
BRANCH   6  11
ATOM     11  O   UNL     1     -11.468   3.315 -15.510  0.00  0.00    -0.493 OA
ATOM     12  C   UNL     1     -10.447   4.205 -15.942  0.00  0.00    +0.277 C 
ENDBRANCH   6  11
ENDBRANCH   3   5
ENDBRANCH   1   3
BRANCH   1  13
ATOM     13  N   UNL     1     -14.609   3.415 -15.660  0.00  0.00    -0.261 N 
ATOM     14  H   UNL     1     -14.261   4.146 -16.221  0.00  0.00    +0.168 HD
BRANCH  13  15
ATOM     15  C   UNL     1     -15.309   3.614 -14.451  0.00  0.00    +0.084 A 
ATOM     16  C   UNL     1     -16.597   3.114 -14.175  0.00  0.00    +0.142 A 
ATOM     17  C   UNL     1     -17.184   3.295 -12.916  0.00  0.00    +0.047 A 
ATOM     18  C   UNL     1     -16.506   4.001 -11.924  0.00  0.00    +0.004 A 
ATOM     19  C   UNL     1     -15.237   4.513 -12.181  0.00  0.00    +0.002 A 
ATOM     20  C   UNL     1     -14.644   4.313 -13.432  0.00  0.00    +0.028 A 
BRANCH  16  21
ATOM     21  O   UNL     1     -17.265   2.363 -15.111  0.00  0.00    -0.493 OA
ATOM     22  C   UNL     1     -18.526   2.954 -15.425  0.00  0.00    +0.277 C 
ENDBRANCH  16  21
ENDBRANCH  13  15
ENDBRANCH   1  13
TORSDOF 6
ENDMDL
MODEL 3
REMARK VINA RESULT:      -6.2      1.317      5.797
REMARK  Name = min_compound937.pdb
REMARK  8 active torsions:
REMARK  status: ('A' for Active; 'I' for Inactive)
REMARK    1  A    between atoms: _1  and  _2
REMARK    2  A    between atoms: _1  and  _10
REMARK    3  A    between atoms: _2  and  _17
REMARK    4  A    between atoms: _4  and  _17
REMARK    5  A    between atoms: _7  and  _18
REMARK    6  A    between atoms: _12  and  _15
REMARK    7  A    between atoms: _15  and  _16
REMARK    8  A    between atoms: _18  and  _19
REMARK                            x       y       z     vdW  Elec       q    Type
REMARK                         _______ _______ _______ _____ _____    ______ ____
ROOT
ATOM      1  N   UNL     1     -12.940   2.340 -18.746  0.00  0.00    -0.163 NA
ATOM      2  H   UNL     1     -13.207   1.602 -19.397  0.00  0.00    +0.168 HD
ENDROOT
BRANCH   1   3
ATOM      3  N   UNL     1     -13.735   3.416 -18.909  0.00  0.00    -0.261 N 
ATOM      4  H   UNL     1     -14.500   3.308 -19.569  0.00  0.00    +0.168 HD
BRANCH   3   5
ATOM      5  C   UNL     1     -13.151   4.701 -18.941  0.00  0.00    +0.084 A 
ATOM      6  C   UNL     1     -13.013   5.430 -17.739  0.00  0.00    +0.142 A 
ATOM      7  C   UNL     1     -12.366   6.670 -17.745  0.00  0.00    +0.047 A 
ATOM      8  C   UNL     1     -11.845   7.186 -18.935  0.00  0.00    +0.004 A 
ATOM      9  C   UNL     1     -11.965   6.468 -20.121  0.00  0.00    +0.002 A 
ATOM     10  C   UNL     1     -12.610   5.230 -20.122  0.00  0.00    +0.028 A 
BRANCH   6  11
ATOM     11  O   UNL     1     -13.563   4.833 -16.627  0.00  0.00    -0.493 OA
ATOM     12  C   UNL     1     -14.800   5.355 -16.159  0.00  0.00    +0.277 C 
ENDBRANCH   6  11
ENDBRANCH   3   5
ENDBRANCH   1   3
BRANCH   1  13
ATOM     13  N   UNL     1     -13.106   1.962 -17.572  0.00  0.00    -0.261 N 
ATOM     14  H   UNL     1     -13.910   2.162 -17.039  0.00  0.00    +0.168 HD
BRANCH  13  15
ATOM     15  C   UNL     1     -12.009   1.215 -17.093  0.00  0.00    +0.084 A 
ATOM     16  C   UNL     1     -10.719   1.734 -16.866  0.00  0.00    +0.142 A 
ATOM     17  C   UNL     1      -9.709   0.934 -16.314  0.00  0.00    +0.047 A 
ATOM     18  C   UNL     1      -9.964  -0.401 -16.009  0.00  0.00    +0.004 A 
ATOM     19  C   UNL     1     -11.229  -0.936 -16.238  0.00  0.00    +0.002 A 
ATOM     20  C   UNL     1     -12.242  -0.131 -16.768  0.00  0.00    +0.028 A 
BRANCH  16  21
ATOM     21  O   UNL     1     -10.455   3.061 -17.099  0.00  0.00    -0.493 OA
ATOM     22  C   UNL     1     -10.337   3.775 -15.867  0.00  0.00    +0.277 C 
ENDBRANCH  16  21
ENDBRANCH  13  15
ENDBRANCH   1  13
TORSDOF 6
ENDMDL
MODEL 4
REMARK VINA RESULT:      -6.2      1.548      2.303
REMARK  Name = min_compound937.pdb
REMARK  8 active torsions:
REMARK  status: ('A' for Active; 'I' for Inactive)
REMARK    1  A    between atoms: _1  and  _2
REMARK    2  A    between atoms: _1  and  _10
REMARK    3  A    between atoms: _2  and  _17
REMARK    4  A    between atoms: _4  and  _17
REMARK    5  A    between atoms: _7  and  _18
REMARK    6  A    between atoms: _12  and  _15
REMARK    7  A    between atoms: _15  and  _16
REMARK    8  A    between atoms: _18  and  _19
REMARK                            x       y       z     vdW  Elec       q    Type
REMARK                         _______ _______ _______ _____ _____    ______ ____
ROOT
ATOM      1  N   UNL     1     -13.660   2.766 -17.632  0.00  0.00    -0.163 NA
ATOM      2  H   UNL     1     -12.730   2.960 -18.005  0.00  0.00    +0.168 HD
ENDROOT
BRANCH   1   3
ATOM      3  N   UNL     1     -13.583   1.869 -16.629  0.00  0.00    -0.261 N 
ATOM      4  H   UNL     1     -14.053   2.126 -15.765  0.00  0.00    +0.168 HD
BRANCH   3   5
ATOM      5  C   UNL     1     -12.367   1.182 -16.416  0.00  0.00    +0.084 A 
ATOM      6  C   UNL     1     -11.291   1.855 -15.797  0.00  0.00    +0.142 A 
ATOM      7  C   UNL     1     -10.109   1.165 -15.509  0.00  0.00    +0.047 A 
ATOM      8  C   UNL     1      -9.994  -0.193 -15.820  0.00  0.00    +0.004 A 
ATOM      9  C   UNL     1     -11.056  -0.867 -16.418  0.00  0.00    +0.002 A 
ATOM     10  C   UNL     1     -12.237  -0.183 -16.708  0.00  0.00    +0.028 A 
BRANCH   6  11
ATOM     11  O   UNL     1     -11.507   3.189 -15.535  0.00  0.00    -0.493 OA
ATOM     12  C   UNL     1     -10.421   4.077 -15.767  0.00  0.00    +0.277 C 
ENDBRANCH   6  11
ENDBRANCH   3   5
ENDBRANCH   1   3
BRANCH   1  13
ATOM     13  N   UNL     1     -14.151   3.797 -17.137  0.00  0.00    -0.261 N 
ATOM     14  H   UNL     1     -14.851   3.793 -16.444  0.00  0.00    +0.168 HD
BRANCH  13  15
ATOM     15  C   UNL     1     -13.588   4.970 -17.684  0.00  0.00    +0.084 A 
ATOM     16  C   UNL     1     -13.938   6.281 -17.306  0.00  0.00    +0.142 A 
ATOM     17  C   UNL     1     -13.270   7.388 -17.848  0.00  0.00    +0.047 A 
ATOM     18  C   UNL     1     -12.265   7.202 -18.795  0.00  0.00    +0.004 A 
ATOM     19  C   UNL     1     -11.913   5.914 -19.190  0.00  0.00    +0.002 A 
ATOM     20  C   UNL     1     -12.566   4.810 -18.632  0.00  0.00    +0.028 A 
BRANCH  16  21
ATOM     21  O   UNL     1     -14.882   6.495 -16.332  0.00  0.00    -0.493 OA
ATOM     22  C   UNL     1     -15.007   7.890 -16.049  0.00  0.00    +0.277 C 
ENDBRANCH  16  21
ENDBRANCH  13  15
ENDBRANCH   1  13
TORSDOF 6
ENDMDL
MODEL 5
REMARK VINA RESULT:      -6.1      3.104      5.483
REMARK  Name = min_compound937.pdb
REMARK  8 active torsions:
REMARK  status: ('A' for Active; 'I' for Inactive)
REMARK    1  A    between atoms: _1  and  _2
REMARK    2  A    between atoms: _1  and  _10
REMARK    3  A    between atoms: _2  and  _17
REMARK    4  A    between atoms: _4  and  _17
REMARK    5  A    between atoms: _7  and  _18
REMARK    6  A    between atoms: _12  and  _15
REMARK    7  A    between atoms: _15  and  _16
REMARK    8  A    between atoms: _18  and  _19
REMARK                            x       y       z     vdW  Elec       q    Type
REMARK                         _______ _______ _______ _____ _____    ______ ____
ROOT
ATOM      1  N   UNL     1     -13.952   2.455 -17.117  0.00  0.00    -0.163 NA
ATOM      2  H   UNL     1     -13.878   2.128 -18.080  0.00  0.00    +0.168 HD
ENDROOT
BRANCH   1   3
ATOM      3  N   UNL     1     -15.247   2.614 -16.777  0.00  0.00    -0.261 N 
ATOM      4  H   UNL     1     -15.842   3.042 -17.480  0.00  0.00    +0.168 HD
BRANCH   3   5
ATOM      5  C   UNL     1     -15.565   3.016 -15.461  0.00  0.00    +0.084 A 
ATOM      6  C   UNL     1     -15.072   4.247 -14.975  0.00  0.00    +0.142 A 
ATOM      7  C   UNL     1     -15.443   4.694 -13.702  0.00  0.00    +0.047 A 
ATOM      8  C   UNL     1     -16.311   3.932 -12.915  0.00  0.00    +0.004 A 
ATOM      9  C   UNL     1     -16.812   2.724 -13.393  0.00  0.00    +0.002 A 
ATOM     10  C   UNL     1     -16.444   2.273 -14.661  0.00  0.00    +0.028 A 
BRANCH   6  11
ATOM     11  O   UNL     1     -14.224   4.916 -15.828  0.00  0.00    -0.493 OA
ATOM     12  C   UNL     1     -14.714   6.114 -16.417  0.00  0.00    +0.277 C 
ENDBRANCH   6  11
ENDBRANCH   3   5
ENDBRANCH   1   3
BRANCH   1  13
ATOM     13  N   UNL     1     -13.492   1.603 -16.335  0.00  0.00    -0.261 N 
ATOM     14  H   UNL     1     -13.977   1.260 -15.549  0.00  0.00    +0.168 HD
BRANCH  13  15
ATOM     15  C   UNL     1     -12.195   1.187 -16.704  0.00  0.00    +0.084 A 
ATOM     16  C   UNL     1     -11.134   2.054 -17.032  0.00  0.00    +0.142 A 
ATOM     17  C   UNL     1      -9.856   1.552 -17.312  0.00  0.00    +0.047 A 
ATOM     18  C   UNL     1      -9.626   0.178 -17.298  0.00  0.00    +0.004 A 
ATOM     19  C   UNL     1     -10.664  -0.696 -16.989  0.00  0.00    +0.002 A 
ATOM     20  C   UNL     1     -11.934  -0.193 -16.688  0.00  0.00    +0.028 A 
BRANCH  16  21
ATOM     21  O   UNL     1     -11.313   3.415 -16.994  0.00  0.00    -0.493 OA
ATOM     22  C   UNL     1     -10.472   4.006 -16.003  0.00  0.00    +0.277 C 
ENDBRANCH  16  21
ENDBRANCH  13  15
ENDBRANCH   1  13
TORSDOF 6
ENDMDL
MODEL 6
REMARK VINA RESULT:      -6.1     13.037     15.718
REMARK  Name = min_compound937.pdb
REMARK  8 active torsions:
REMARK  status: ('A' for Active; 'I' for Inactive)
REMARK    1  A    between atoms: _1  and  _2
REMARK    2  A    between atoms: _1  and  _10
REMARK    3  A    between atoms: _2  and  _17
REMARK    4  A    between atoms: _4  and  _17
REMARK    5  A    between atoms: _7  and  _18
REMARK    6  A    between atoms: _12  and  _15
REMARK    7  A    between atoms: _15  and  _16
REMARK    8  A    between atoms: _18  and  _19
REMARK                            x       y       z     vdW  Elec       q    Type
REMARK                         _______ _______ _______ _____ _____    ______ ____
ROOT
ATOM      1  N   UNL     1     -14.521  -1.860  -4.525  0.00  0.00    -0.163 NA
ATOM      2  H   UNL     1     -13.917  -2.597  -4.160  0.00  0.00    +0.168 HD
ENDROOT
BRANCH   1   3
ATOM      3  N   UNL     1     -14.567  -1.917  -5.871  0.00  0.00    -0.261 N 
ATOM      4  H   UNL     1     -13.722  -2.244  -6.331  0.00  0.00    +0.168 HD
BRANCH   3   5
ATOM      5  C   UNL     1     -15.221  -0.885  -6.579  0.00  0.00    +0.084 A 
ATOM      6  C   UNL     1     -14.737   0.438  -6.477  0.00  0.00    +0.142 A 
ATOM      7  C   UNL     1     -15.327   1.456  -7.234  0.00  0.00    +0.047 A 
ATOM      8  C   UNL     1     -16.386   1.167  -8.099  0.00  0.00    +0.004 A 
ATOM      9  C   UNL     1     -16.859  -0.137  -8.215  0.00  0.00    +0.002 A 
ATOM     10  C   UNL     1     -16.275  -1.157  -7.462  0.00  0.00    +0.028 A 
BRANCH   6  11
ATOM     11  O   UNL     1     -13.695   0.614  -5.596  0.00  0.00    -0.493 OA
ATOM     12  C   UNL     1     -13.868   1.592  -4.578  0.00  0.00    +0.277 C 
ENDBRANCH   6  11
ENDBRANCH   3   5
ENDBRANCH   1   3
BRANCH   1  13
ATOM     13  N   UNL     1     -15.690  -2.026  -4.132  0.00  0.00    -0.261 N 
ATOM     14  H   UNL     1     -16.478  -1.990  -4.722  0.00  0.00    +0.168 HD
BRANCH  13  15
ATOM     15  C   UNL     1     -15.755  -2.272  -2.744  0.00  0.00    +0.084 A 
ATOM     16  C   UNL     1     -14.990  -3.239  -2.061  0.00  0.00    +0.142 A 
ATOM     17  C   UNL     1     -15.064  -3.360  -0.667  0.00  0.00    +0.047 A 
ATOM     18  C   UNL     1     -15.923  -2.540   0.061  0.00  0.00    +0.004 A 
ATOM     19  C   UNL     1     -16.696  -1.587  -0.596  0.00  0.00    +0.002 A 
ATOM     20  C   UNL     1     -16.605  -1.452  -1.985  0.00  0.00    +0.028 A 
BRANCH  16  21
ATOM     21  O   UNL     1     -14.091  -4.020  -2.744  0.00  0.00    -0.493 OA
ATOM     22  C   UNL     1     -13.573  -5.048  -1.897  0.00  0.00    +0.277 C 
ENDBRANCH  16  21
ENDBRANCH  13  15
ENDBRANCH   1  13
TORSDOF 6
ENDMDL
MODEL 7
REMARK VINA RESULT:      -6.1      3.807      5.518
REMARK  Name = min_compound937.pdb
REMARK  8 active torsions:
REMARK  status: ('A' for Active; 'I' for Inactive)
REMARK    1  A    between atoms: _1  and  _2
REMARK    2  A    between atoms: _1  and  _10
REMARK    3  A    between atoms: _2  and  _17
REMARK    4  A    between atoms: _4  and  _17
REMARK    5  A    between atoms: _7  and  _18
REMARK    6  A    between atoms: _12  and  _15
REMARK    7  A    between atoms: _15  and  _16
REMARK    8  A    between atoms: _18  and  _19
REMARK                            x       y       z     vdW  Elec       q    Type
REMARK                         _______ _______ _______ _____ _____    ______ ____
ROOT
ATOM      1  N   UNL     1     -12.960   3.661 -14.785  0.00  0.00    -0.163 NA
ATOM      2  H   UNL     1     -13.174   2.796 -14.288  0.00  0.00    +0.168 HD
ENDROOT
BRANCH   1   3
ATOM      3  N   UNL     1     -12.030   3.438 -15.734  0.00  0.00    -0.261 N 
ATOM      4  H   UNL     1     -12.106   4.004 -16.574  0.00  0.00    +0.168 HD
BRANCH   3   5
ATOM      5  C   UNL     1     -11.622   2.111 -15.994  0.00  0.00    +0.084 A 
ATOM      6  C   UNL     1     -12.278   1.370 -17.001  0.00  0.00    +0.142 A 
ATOM      7  C   UNL     1     -11.832   0.083 -17.323  0.00  0.00    +0.047 A 
ATOM      8  C   UNL     1     -10.732  -0.467 -16.659  0.00  0.00    +0.004 A 
ATOM      9  C   UNL     1     -10.072   0.263 -15.674  0.00  0.00    +0.002 A 
ATOM     10  C   UNL     1     -10.512   1.547 -15.349  0.00  0.00    +0.028 A 
BRANCH   6  11
ATOM     11  O   UNL     1     -13.349   2.002 -17.590  0.00  0.00    -0.493 OA
ATOM     12  C   UNL     1     -13.238   2.308 -18.974  0.00  0.00    +0.277 C 
ENDBRANCH   6  11
ENDBRANCH   3   5
ENDBRANCH   1   3
BRANCH   1  13
ATOM     13  N   UNL     1     -13.970   4.078 -15.382  0.00  0.00    -0.261 N 
ATOM     14  H   UNL     1     -13.938   4.608 -16.211  0.00  0.00    +0.168 HD
BRANCH  13  15
ATOM     15  C   UNL     1     -15.165   3.702 -14.732  0.00  0.00    +0.084 A 
ATOM     16  C   UNL     1     -15.546   4.121 -13.443  0.00  0.00    +0.142 A 
ATOM     17  C   UNL     1     -16.790   3.760 -12.908  0.00  0.00    +0.047 A 
ATOM     18  C   UNL     1     -17.657   2.951 -13.640  0.00  0.00    +0.004 A 
ATOM     19  C   UNL     1     -17.294   2.517 -14.911  0.00  0.00    +0.002 A 
ATOM     20  C   UNL     1     -16.061   2.896 -15.453  0.00  0.00    +0.028 A 
BRANCH  16  21
ATOM     21  O   UNL     1     -14.741   4.968 -12.722  0.00  0.00    -0.493 OA
ATOM     22  C   UNL     1     -14.959   4.798 -11.320  0.00  0.00    +0.277 C 
ENDBRANCH  16  21
ENDBRANCH  13  15
ENDBRANCH   1  13
TORSDOF 6
ENDMDL
MODEL 8
REMARK VINA RESULT:      -6.1      0.660      6.203
REMARK  Name = min_compound937.pdb
REMARK  8 active torsions:
REMARK  status: ('A' for Active; 'I' for Inactive)
REMARK    1  A    between atoms: _1  and  _2
REMARK    2  A    between atoms: _1  and  _10
REMARK    3  A    between atoms: _2  and  _17
REMARK    4  A    between atoms: _4  and  _17
REMARK    5  A    between atoms: _7  and  _18
REMARK    6  A    between atoms: _12  and  _15
REMARK    7  A    between atoms: _15  and  _16
REMARK    8  A    between atoms: _18  and  _19
REMARK                            x       y       z     vdW  Elec       q    Type
REMARK                         _______ _______ _______ _____ _____    ______ ____
ROOT
ATOM      1  N   UNL     1     -13.070   2.694 -18.369  0.00  0.00    -0.163 NA
ATOM      2  H   UNL     1     -13.630   2.281 -19.115  0.00  0.00    +0.168 HD
ENDROOT
BRANCH   1   3
ATOM      3  N   UNL     1     -13.470   3.959 -18.131  0.00  0.00    -0.261 N 
ATOM      4  H   UNL     1     -14.471   4.097 -18.025  0.00  0.00    +0.168 HD
BRANCH   3   5
ATOM      5  C   UNL     1     -12.832   5.019 -18.812  0.00  0.00    +0.084 A 
ATOM      6  C   UNL     1     -12.901   5.076 -20.222  0.00  0.00    +0.142 A 
ATOM      7  C   UNL     1     -12.342   6.162 -20.904  0.00  0.00    +0.047 A 
ATOM      8  C   UNL     1     -11.725   7.196 -20.195  0.00  0.00    +0.004 A 
ATOM      9  C   UNL     1     -11.666   7.154 -18.805  0.00  0.00    +0.002 A 
ATOM     10  C   UNL     1     -12.221   6.073 -18.119  0.00  0.00    +0.028 A 
BRANCH   6  11
ATOM     11  O   UNL     1     -13.527   4.007 -20.821  0.00  0.00    -0.493 OA
ATOM     12  C   UNL     1     -13.242   3.779 -22.196  0.00  0.00    +0.277 C 
ENDBRANCH   6  11
ENDBRANCH   3   5
ENDBRANCH   1   3
BRANCH   1  13
ATOM     13  N   UNL     1     -13.242   2.072 -17.305  0.00  0.00    -0.261 N 
ATOM     14  H   UNL     1     -14.069   2.113 -16.772  0.00  0.00    +0.168 HD
BRANCH  13  15
ATOM     15  C   UNL     1     -12.115   1.299 -16.952  0.00  0.00    +0.084 A 
ATOM     16  C   UNL     1     -10.811   1.806 -16.788  0.00  0.00    +0.142 A 
ATOM     17  C   UNL     1      -9.765   0.977 -16.360  0.00  0.00    +0.047 A 
ATOM     18  C   UNL     1     -10.000  -0.375 -16.118  0.00  0.00    +0.004 A 
ATOM     19  C   UNL     1     -11.279  -0.898 -16.286  0.00  0.00    +0.002 A 
ATOM     20  C   UNL     1     -12.326  -0.064 -16.692  0.00  0.00    +0.028 A 
BRANCH  16  21
ATOM     21  O   UNL     1     -10.561   3.146 -16.960  0.00  0.00    -0.493 OA
ATOM     22  C   UNL     1     -10.474   3.808 -15.697  0.00  0.00    +0.277 C 
ENDBRANCH  16  21
ENDBRANCH  13  15
ENDBRANCH   1  13
TORSDOF 6
ENDMDL
MODEL 9
REMARK VINA RESULT:      -6.0     13.089     14.987
REMARK  Name = min_compound937.pdb
REMARK  8 active torsions:
REMARK  status: ('A' for Active; 'I' for Inactive)
REMARK    1  A    between atoms: _1  and  _2
REMARK    2  A    between atoms: _1  and  _10
REMARK    3  A    between atoms: _2  and  _17
REMARK    4  A    between atoms: _4  and  _17
REMARK    5  A    between atoms: _7  and  _18
REMARK    6  A    between atoms: _12  and  _15
REMARK    7  A    between atoms: _15  and  _16
REMARK    8  A    between atoms: _18  and  _19
REMARK                            x       y       z     vdW  Elec       q    Type
REMARK                         _______ _______ _______ _____ _____    ______ ____
ROOT
ATOM      1  N   UNL     1     -14.531  -1.753  -4.540  0.00  0.00    -0.163 NA
ATOM      2  H   UNL     1     -14.340  -0.767  -4.360  0.00  0.00    +0.168 HD
ENDROOT
BRANCH   1   3
ATOM      3  N   UNL     1     -15.735  -2.094  -4.039  0.00  0.00    -0.261 N 
ATOM      4  H   UNL     1     -16.541  -1.679  -4.498  0.00  0.00    +0.168 HD
BRANCH   3   5
ATOM      5  C   UNL     1     -15.889  -2.205  -2.640  0.00  0.00    +0.084 A 
ATOM      6  C   UNL     1     -15.041  -3.074  -1.917  0.00  0.00    +0.142 A 
ATOM      7  C   UNL     1     -15.130  -3.135  -0.522  0.00  0.00    +0.047 A 
ATOM      8  C   UNL     1     -16.047  -2.329   0.160  0.00  0.00    +0.004 A 
ATOM      9  C   UNL     1     -16.875  -1.460  -0.544  0.00  0.00    +0.002 A 
ATOM     10  C   UNL     1     -16.792  -1.395  -1.936  0.00  0.00    +0.028 A 
BRANCH   6  11
ATOM     11  O   UNL     1     -14.179  -3.823  -2.684  0.00  0.00    -0.493 OA
ATOM     12  C   UNL     1     -13.815  -5.103  -2.184  0.00  0.00    +0.277 C 
ENDBRANCH   6  11
ENDBRANCH   3   5
ENDBRANCH   1   3
BRANCH   1  13
ATOM     13  N   UNL     1     -14.594  -1.965  -5.764  0.00  0.00    -0.261 N 
ATOM     14  H   UNL     1     -14.293  -2.799  -6.193  0.00  0.00    +0.168 HD
BRANCH  13  15
ATOM     15  C   UNL     1     -15.147  -0.872  -6.466  0.00  0.00    +0.084 A 
ATOM     16  C   UNL     1     -14.701   0.460  -6.361  0.00  0.00    +0.142 A 
ATOM     17  C   UNL     1     -15.260   1.470  -7.156  0.00  0.00    +0.047 A 
ATOM     18  C   UNL     1     -16.290   1.170  -8.045  0.00  0.00    +0.004 A 
ATOM     19  C   UNL     1     -16.752  -0.139  -8.155  0.00  0.00    +0.002 A 
ATOM     20  C   UNL     1     -16.179  -1.150  -7.376  0.00  0.00    +0.028 A 
BRANCH  16  21
ATOM     21  O   UNL     1     -13.647   0.777  -5.540  0.00  0.00    -0.493 OA
ATOM     22  C   UNL     1     -14.049   1.722  -4.547  0.00  0.00    +0.277 C 
ENDBRANCH  16  21
ENDBRANCH  13  15
ENDBRANCH   1  13
TORSDOF 6
ENDMDL
