MODEL 1
REMARK VINA RESULT:      -7.9      0.000      0.000
REMARK  Name = min_compound990.pdb
REMARK  2 active torsions:
REMARK  status: ('A' for Active; 'I' for Inactive)
REMARK    1  A    between atoms: _3  and  _24
REMARK    2  A    between atoms: _10  and  _24
REMARK                            x       y       z     vdW  Elec       q    Type
REMARK                         _______ _______ _______ _____ _____    ______ ____
ROOT
ATOM      1  S   UNL     1     -14.614   4.359 -17.139  0.00  0.00    +0.061 S 
ATOM      2  O   UNL     1     -15.696   3.509 -17.587  0.00  0.00    -0.153 OA
ATOM      3  O   UNL     1     -13.996   5.297 -18.054  0.00  0.00    -0.153 OA
ENDROOT
BRANCH   1   4
ATOM      4  C   UNL     1     -13.291   3.326 -16.544  0.00  0.00    +0.106 A 
ATOM      5  C   UNL     1     -13.242   1.970 -16.864  0.00  0.00    +0.034 A 
ATOM      6  C   UNL     1     -12.152   1.191 -16.437  0.00  0.00    -0.025 A 
ATOM      7  C   UNL     1     -12.119  -0.279 -16.771  0.00  0.00    +0.038 C 
ATOM      8  C   UNL     1     -11.085  -1.030 -15.938  0.00  0.00    +0.023 C 
ATOM      9  C   UNL     1      -9.780  -0.250 -15.925  0.00  0.00    +0.102 C 
ATOM     10  N   UNL     1      -9.983   1.047 -15.291  0.00  0.00    -0.344 N 
ATOM     11  H   UNL     1      -9.135   1.604 -15.229  0.00  0.00    +0.146 HD
ATOM     12  C   UNL     1     -11.073   1.795 -15.762  0.00  0.00    +0.030 A 
ATOM     13  C   UNL     1     -11.156   3.152 -15.430  0.00  0.00    +0.025 A 
ATOM     14  C   UNL     1     -12.250   3.921 -15.826  0.00  0.00    +0.030 A 
ENDBRANCH   1   4
BRANCH   1  24
ATOM     15  C   UNL     1     -15.973   4.646 -14.706  0.00  0.00    +0.083 C 
ATOM     16  C   UNL     1     -17.436   5.099 -15.023  0.00  0.00    +0.008 C 
ATOM     17  C   UNL     1     -18.495   4.590 -14.089  0.00  0.00    +0.005 C 
ATOM     18  C   UNL     1     -17.565   3.997 -12.916  0.00  0.00    +0.000 C 
ATOM     19  C   UNL     1     -16.956   2.606 -13.424  0.00  0.00    +0.002 C 
ATOM     20  C   UNL     1     -17.676   6.345 -15.822  0.00  0.00    +0.006 C 
ATOM     21  C   UNL     1     -16.618   6.853 -16.754  0.00  0.00    +0.017 C 
ATOM     22  C   UNL     1     -15.321   6.642 -15.847  0.00  0.00    +0.110 C 
ATOM     23  C   UNL     1     -15.896   3.115 -14.357  0.00  0.00    +0.021 C 
ATOM     24  N   UNL     1     -15.073   5.185 -15.736  0.00  0.00    -0.173 NA
ENDBRANCH   1  24
TORSDOF 2
ENDMDL
MODEL 2
REMARK VINA RESULT:      -7.2      3.187      4.656
REMARK  Name = min_compound990.pdb
REMARK  2 active torsions:
REMARK  status: ('A' for Active; 'I' for Inactive)
REMARK    1  A    between atoms: _3  and  _24
REMARK    2  A    between atoms: _10  and  _24
REMARK                            x       y       z     vdW  Elec       q    Type
REMARK                         _______ _______ _______ _____ _____    ______ ____
ROOT
ATOM      1  S   UNL     1     -13.331   4.752 -18.578  0.00  0.00    +0.061 S 
ATOM      2  O   UNL     1     -12.514   5.053 -19.733  0.00  0.00    -0.153 OA
ATOM      3  O   UNL     1     -13.786   5.817 -17.708  0.00  0.00    -0.153 OA
ENDROOT
BRANCH   1   4
ATOM      4  C   UNL     1     -12.436   3.625 -17.529  0.00  0.00    +0.106 A 
ATOM      5  C   UNL     1     -12.412   2.258 -17.804  0.00  0.00    +0.034 A 
ATOM      6  C   UNL     1     -11.644   1.398 -16.999  0.00  0.00    -0.025 A 
ATOM      7  C   UNL     1     -11.640  -0.081 -17.293  0.00  0.00    +0.038 C 
ATOM      8  C   UNL     1     -11.072  -0.891 -16.132  0.00  0.00    +0.023 C 
ATOM      9  C   UNL     1      -9.792  -0.238 -15.635  0.00  0.00    +0.102 C 
ATOM     10  N   UNL     1     -10.081   1.097 -15.127  0.00  0.00    -0.344 N 
ATOM     11  H   UNL     1      -9.264   1.575 -14.755  0.00  0.00    +0.146 HD
ATOM     12  C   UNL     1     -10.836   1.925 -15.973  0.00  0.00    +0.030 A 
ATOM     13  C   UNL     1     -10.896   3.296 -15.699  0.00  0.00    +0.025 A 
ATOM     14  C   UNL     1     -11.681   4.148 -16.477  0.00  0.00    +0.030 A 
ENDBRANCH   1   4
BRANCH   1  24
ATOM     15  C   UNL     1     -14.746   3.040 -20.286  0.00  0.00    +0.083 C 
ATOM     16  C   UNL     1     -15.429   3.917 -21.387  0.00  0.00    +0.008 C 
ATOM     17  C   UNL     1     -15.548   3.287 -22.744  0.00  0.00    +0.005 C 
ATOM     18  C   UNL     1     -15.157   1.768 -22.377  0.00  0.00    +0.000 C 
ATOM     19  C   UNL     1     -13.570   1.699 -22.182  0.00  0.00    +0.002 C 
ATOM     20  C   UNL     1     -16.358   5.025 -20.990  0.00  0.00    +0.006 C 
ATOM     21  C   UNL     1     -16.239   5.654 -19.635  0.00  0.00    +0.017 C 
ATOM     22  C   UNL     1     -16.013   4.349 -18.741  0.00  0.00    +0.110 C 
ATOM     23  C   UNL     1     -13.451   2.329 -20.824  0.00  0.00    +0.021 C 
ATOM     24  N   UNL     1     -14.663   3.817 -19.042  0.00  0.00    -0.173 NA
ENDBRANCH   1  24
TORSDOF 2
ENDMDL
MODEL 3
REMARK VINA RESULT:      -7.0      6.009      8.252
REMARK  Name = min_compound990.pdb
REMARK  2 active torsions:
REMARK  status: ('A' for Active; 'I' for Inactive)
REMARK    1  A    between atoms: _3  and  _24
REMARK    2  A    between atoms: _10  and  _24
REMARK                            x       y       z     vdW  Elec       q    Type
REMARK                         _______ _______ _______ _____ _____    ______ ____
ROOT
ATOM      1  S   UNL     1     -18.402   3.461  -8.872  0.00  0.00    +0.061 S 
ATOM      2  O   UNL     1     -19.271   2.331  -9.121  0.00  0.00    -0.153 OA
ATOM      3  O   UNL     1     -18.963   4.779  -8.656  0.00  0.00    -0.153 OA
ENDROOT
BRANCH   1   4
ATOM      4  C   UNL     1     -17.288   3.634 -10.250  0.00  0.00    +0.106 A 
ATOM      5  C   UNL     1     -17.613   3.116 -11.504  0.00  0.00    +0.034 A 
ATOM      6  C   UNL     1     -16.747   3.324 -12.591  0.00  0.00    -0.025 A 
ATOM      7  C   UNL     1     -17.100   2.743 -13.937  0.00  0.00    +0.038 C 
ATOM      8  C   UNL     1     -15.906   2.742 -14.888  0.00  0.00    +0.023 C 
ATOM      9  C   UNL     1     -15.211   4.093 -14.830  0.00  0.00    +0.102 C 
ATOM     10  N   UNL     1     -14.691   4.327 -13.489  0.00  0.00    -0.344 N 
ATOM     11  H   UNL     1     -14.190   5.207 -13.396  0.00  0.00    +0.146 HD
ATOM     12  C   UNL     1     -15.598   4.123 -12.436  0.00  0.00    +0.030 A 
ATOM     13  C   UNL     1     -15.278   4.611 -11.164  0.00  0.00    +0.025 A 
ATOM     14  C   UNL     1     -16.121   4.381 -10.077  0.00  0.00    +0.030 A 
ENDBRANCH   1   4
BRANCH   1  24
ATOM     15  C   UNL     1     -16.901   1.749  -7.239  0.00  0.00    +0.083 C 
ATOM     16  C   UNL     1     -17.850   1.191  -6.128  0.00  0.00    +0.008 C 
ATOM     17  C   UNL     1     -17.570  -0.211  -5.672  0.00  0.00    +0.005 C 
ATOM     18  C   UNL     1     -16.135  -0.444  -6.365  0.00  0.00    +0.000 C 
ATOM     19  C   UNL     1     -16.377  -0.706  -7.926  0.00  0.00    +0.002 C 
ATOM     20  C   UNL     1     -18.586   2.140  -5.228  0.00  0.00    +0.006 C 
ATOM     21  C   UNL     1     -18.865   3.540  -5.683  0.00  0.00    +0.017 C 
ATOM     22  C   UNL     1     -17.463   3.898  -6.361  0.00  0.00    +0.110 C 
ATOM     23  C   UNL     1     -16.657   0.697  -8.382  0.00  0.00    +0.021 C 
ATOM     24  N   UNL     1     -17.340   3.103  -7.605  0.00  0.00    -0.173 NA
ENDBRANCH   1  24
TORSDOF 2
ENDMDL
MODEL 4
REMARK VINA RESULT:      -7.0      2.587      7.006
REMARK  Name = min_compound990.pdb
REMARK  2 active torsions:
REMARK  status: ('A' for Active; 'I' for Inactive)
REMARK    1  A    between atoms: _3  and  _24
REMARK    2  A    between atoms: _10  and  _24
REMARK                            x       y       z     vdW  Elec       q    Type
REMARK                         _______ _______ _______ _____ _____    ______ ____
ROOT
ATOM      1  S   UNL     1     -14.183   3.110 -16.021  0.00  0.00    +0.061 S 
ATOM      2  O   UNL     1     -15.178   2.077 -15.836  0.00  0.00    -0.153 OA
ATOM      3  O   UNL     1     -13.371   3.550 -14.905  0.00  0.00    -0.153 OA
ENDROOT
BRANCH   1   4
ATOM      4  C   UNL     1     -14.992   4.574 -16.633  0.00  0.00    +0.106 A 
ATOM      5  C   UNL     1     -14.775   5.815 -16.035  0.00  0.00    +0.034 A 
ATOM      6  C   UNL     1     -15.373   6.965 -16.577  0.00  0.00    -0.025 A 
ATOM      7  C   UNL     1     -15.148   8.299 -15.910  0.00  0.00    +0.038 C 
ATOM      8  C   UNL     1     -16.142   9.352 -16.392  0.00  0.00    +0.023 C 
ATOM      9  C   UNL     1     -16.245   9.296 -17.908  0.00  0.00    +0.102 C 
ATOM     10  N   UNL     1     -16.761   7.998 -18.323  0.00  0.00    -0.344 N 
ATOM     11  H   UNL     1     -16.877   7.911 -19.329  0.00  0.00    +0.146 HD
ATOM     12  C   UNL     1     -16.120   6.879 -17.768  0.00  0.00    +0.030 A 
ATOM     13  C   UNL     1     -16.346   5.620 -18.337  0.00  0.00    +0.025 A 
ATOM     14  C   UNL     1     -15.778   4.472 -17.783  0.00  0.00    +0.030 A 
ENDBRANCH   1   4
BRANCH   1  24
ATOM     15  C   UNL     1     -12.225   1.578 -17.313  0.00  0.00    +0.083 C 
ATOM     16  C   UNL     1     -10.825   2.084 -16.834  0.00  0.00    +0.008 C 
ATOM     17  C   UNL     1      -9.752   1.040 -16.729  0.00  0.00    +0.005 C 
ATOM     18  C   UNL     1     -10.481  -0.179 -17.487  0.00  0.00    +0.000 C 
ATOM     19  C   UNL     1     -11.568  -0.802 -16.491  0.00  0.00    +0.002 C 
ATOM     20  C   UNL     1     -10.453   3.527 -17.005  0.00  0.00    +0.006 C 
ATOM     21  C   UNL     1     -11.524   4.570 -17.110  0.00  0.00    +0.017 C 
ATOM     22  C   UNL     1     -12.552   3.819 -18.075  0.00  0.00    +0.110 C 
ATOM     23  C   UNL     1     -12.641   0.242 -16.596  0.00  0.00    +0.021 C 
ATOM     24  N   UNL     1     -13.166   2.706 -17.312  0.00  0.00    -0.173 NA
ENDBRANCH   1  24
TORSDOF 2
ENDMDL
MODEL 5
REMARK VINA RESULT:      -6.8      8.976     11.635
REMARK  Name = min_compound990.pdb
REMARK  2 active torsions:
REMARK  status: ('A' for Active; 'I' for Inactive)
REMARK    1  A    between atoms: _3  and  _24
REMARK    2  A    between atoms: _10  and  _24
REMARK                            x       y       z     vdW  Elec       q    Type
REMARK                         _______ _______ _______ _____ _____    ______ ____
ROOT
ATOM      1  S   UNL     1     -18.130   1.204  -5.734  0.00  0.00    +0.061 S 
ATOM      2  O   UNL     1     -17.549   0.021  -6.330  0.00  0.00    -0.153 OA
ATOM      3  O   UNL     1     -19.567   1.319  -5.590  0.00  0.00    -0.153 OA
ENDROOT
BRANCH   1   4
ATOM      4  C   UNL     1     -17.628   2.623  -6.685  0.00  0.00    +0.106 A 
ATOM      5  C   UNL     1     -17.115   2.476  -7.975  0.00  0.00    +0.034 A 
ATOM      6  C   UNL     1     -16.789   3.616  -8.730  0.00  0.00    -0.025 A 
ATOM      7  C   UNL     1     -16.217   3.445 -10.114  0.00  0.00    +0.038 C 
ATOM      8  C   UNL     1     -15.588   4.734 -10.634  0.00  0.00    +0.023 C 
ATOM      9  C   UNL     1     -16.525   5.901 -10.365  0.00  0.00    +0.102 C 
ATOM     10  N   UNL     1     -16.715   6.064  -8.929  0.00  0.00    -0.344 N 
ATOM     11  H   UNL     1     -17.313   6.849  -8.687  0.00  0.00    +0.146 HD
ATOM     12  C   UNL     1     -17.056   4.902  -8.220  0.00  0.00    +0.030 A 
ATOM     13  C   UNL     1     -17.546   5.025  -6.915  0.00  0.00    +0.025 A 
ATOM     14  C   UNL     1     -17.844   3.896  -6.152  0.00  0.00    +0.030 A 
ENDBRANCH   1   4
BRANCH   1  24
ATOM     15  C   UNL     1     -15.996   1.233  -3.918  0.00  0.00    +0.083 C 
ATOM     16  C   UNL     1     -15.893  -0.190  -3.275  0.00  0.00    +0.008 C 
ATOM     17  C   UNL     1     -14.507  -0.654  -2.933  0.00  0.00    +0.005 C 
ATOM     18  C   UNL     1     -13.701   0.727  -3.121  0.00  0.00    +0.000 C 
ATOM     19  C   UNL     1     -13.523   0.987  -4.690  0.00  0.00    +0.002 C 
ATOM     20  C   UNL     1     -17.077  -0.778  -2.568  0.00  0.00    +0.006 C 
ATOM     21  C   UNL     1     -18.461  -0.314  -2.910  0.00  0.00    +0.017 C 
ATOM     22  C   UNL     1     -18.209   1.260  -3.019  0.00  0.00    +0.110 C 
ATOM     23  C   UNL     1     -14.908   1.451  -5.033  0.00  0.00    +0.021 C 
ATOM     24  N   UNL     1     -17.403   1.511  -4.237  0.00  0.00    -0.173 NA
ENDBRANCH   1  24
TORSDOF 2
ENDMDL
MODEL 6
REMARK VINA RESULT:      -6.8      4.047      5.690
REMARK  Name = min_compound990.pdb
REMARK  2 active torsions:
REMARK  status: ('A' for Active; 'I' for Inactive)
REMARK    1  A    between atoms: _3  and  _24
REMARK    2  A    between atoms: _10  and  _24
REMARK                            x       y       z     vdW  Elec       q    Type
REMARK                         _______ _______ _______ _____ _____    ______ ____
ROOT
ATOM      1  S   UNL     1     -13.859   4.998 -18.742  0.00  0.00    +0.061 S 
ATOM      2  O   UNL     1     -13.548   6.371 -18.411  0.00  0.00    -0.153 OA
ATOM      3  O   UNL     1     -15.206   4.493 -18.572  0.00  0.00    -0.153 OA
ENDROOT
BRANCH   1   4
ATOM      4  C   UNL     1     -12.820   3.931 -17.766  0.00  0.00    +0.106 A 
ATOM      5  C   UNL     1     -12.784   2.556 -18.000  0.00  0.00    +0.034 A 
ATOM      6  C   UNL     1     -11.906   1.745 -17.261  0.00  0.00    -0.025 A 
ATOM      7  C   UNL     1     -11.890   0.257 -17.509  0.00  0.00    +0.038 C 
ATOM      8  C   UNL     1     -11.173  -0.498 -16.394  0.00  0.00    +0.023 C 
ATOM      9  C   UNL     1      -9.866   0.206 -16.063  0.00  0.00    +0.102 C 
ATOM     10  N   UNL     1     -10.138   1.548 -15.566  0.00  0.00    -0.344 N 
ATOM     11  H   UNL     1      -9.300   2.060 -15.301  0.00  0.00    +0.146 HD
ATOM     12  C   UNL     1     -11.007   2.327 -16.347  0.00  0.00    +0.030 A 
ATOM     13  C   UNL     1     -11.078   3.704 -16.109  0.00  0.00    +0.025 A 
ATOM     14  C   UNL     1     -11.969   4.508 -16.821  0.00  0.00    +0.030 A 
ENDBRANCH   1   4
BRANCH   1  24
ATOM     15  C   UNL     1     -12.610   5.591 -21.179  0.00  0.00    +0.083 C 
ATOM     16  C   UNL     1     -13.639   6.361 -22.071  0.00  0.00    +0.008 C 
ATOM     17  C   UNL     1     -13.062   7.402 -22.985  0.00  0.00    +0.005 C 
ATOM     18  C   UNL     1     -11.497   7.047 -22.852  0.00  0.00    +0.000 C 
ATOM     19  C   UNL     1     -10.981   7.603 -21.442  0.00  0.00    +0.002 C 
ATOM     20  C   UNL     1     -14.967   5.740 -22.386  0.00  0.00    +0.006 C 
ATOM     21  C   UNL     1     -15.544   4.699 -21.473  0.00  0.00    +0.017 C 
ATOM     22  C   UNL     1     -14.233   3.838 -21.170  0.00  0.00    +0.110 C 
ATOM     23  C   UNL     1     -11.558   6.561 -20.529  0.00  0.00    +0.021 C 
ATOM     24  N   UNL     1     -13.338   4.652 -20.314  0.00  0.00    -0.173 NA
ENDBRANCH   1  24
TORSDOF 2
ENDMDL
MODEL 7
REMARK VINA RESULT:      -6.7      8.964     11.770
REMARK  Name = min_compound990.pdb
REMARK  2 active torsions:
REMARK  status: ('A' for Active; 'I' for Inactive)
REMARK    1  A    between atoms: _3  and  _24
REMARK    2  A    between atoms: _10  and  _24
REMARK                            x       y       z     vdW  Elec       q    Type
REMARK                         _______ _______ _______ _____ _____    ______ ____
ROOT
ATOM      1  S   UNL     1     -18.063   0.456  -5.939  0.00  0.00    +0.061 S 
ATOM      2  O   UNL     1     -17.366  -0.757  -6.306  0.00  0.00    -0.153 OA
ATOM      3  O   UNL     1     -19.507   0.463  -5.828  0.00  0.00    -0.153 OA
ENDROOT
BRANCH   1   4
ATOM      4  C   UNL     1     -17.668   1.719  -7.131  0.00  0.00    +0.106 A 
ATOM      5  C   UNL     1     -17.971   3.058  -6.882  0.00  0.00    +0.034 A 
ATOM      6  C   UNL     1     -17.589   4.044  -7.809  0.00  0.00    -0.025 A 
ATOM      7  C   UNL     1     -17.939   5.486  -7.540  0.00  0.00    +0.038 C 
ATOM      8  C   UNL     1     -17.786   6.351  -8.787  0.00  0.00    +0.023 C 
ATOM      9  C   UNL     1     -16.465   6.031  -9.469  0.00  0.00    +0.102 C 
ATOM     10  N   UNL     1     -16.458   4.641  -9.908  0.00  0.00    -0.344 N 
ATOM     11  H   UNL     1     -15.607   4.375 -10.396  0.00  0.00    +0.146 HD
ATOM     12  C   UNL     1     -16.830   3.692  -8.942  0.00  0.00    +0.030 A 
ATOM     13  C   UNL     1     -16.560   2.340  -9.185  0.00  0.00    +0.025 A 
ATOM     14  C   UNL     1     -16.964   1.357  -8.281  0.00  0.00    +0.030 A 
ENDBRANCH   1   4
BRANCH   1  24
ATOM     15  C   UNL     1     -15.983   1.007  -4.145  0.00  0.00    +0.083 C 
ATOM     16  C   UNL     1     -15.771  -0.259  -3.252  0.00  0.00    +0.008 C 
ATOM     17  C   UNL     1     -14.358  -0.527  -2.820  0.00  0.00    +0.005 C 
ATOM     18  C   UNL     1     -13.671   0.864  -3.253  0.00  0.00    +0.000 C 
ATOM     19  C   UNL     1     -13.480   0.849  -4.842  0.00  0.00    +0.002 C 
ATOM     20  C   UNL     1     -16.916  -0.813  -2.456  0.00  0.00    +0.006 C 
ATOM     21  C   UNL     1     -18.326  -0.545  -2.887  0.00  0.00    +0.017 C 
ATOM     22  C   UNL     1     -18.210   0.998  -3.281  0.00  0.00    +0.110 C 
ATOM     23  C   UNL     1     -14.893   1.116  -5.273  0.00  0.00    +0.021 C 
ATOM     24  N   UNL     1     -17.401   1.095  -4.519  0.00  0.00    -0.173 NA
ENDBRANCH   1  24
TORSDOF 2
ENDMDL
MODEL 8
REMARK VINA RESULT:      -6.7      7.363      8.895
REMARK  Name = min_compound990.pdb
REMARK  2 active torsions:
REMARK  status: ('A' for Active; 'I' for Inactive)
REMARK    1  A    between atoms: _3  and  _24
REMARK    2  A    between atoms: _10  and  _24
REMARK                            x       y       z     vdW  Elec       q    Type
REMARK                         _______ _______ _______ _____ _____    ______ ____
ROOT
ATOM      1  S   UNL     1     -17.532   2.811  -9.527  0.00  0.00    +0.061 S 
ATOM      2  O   UNL     1     -18.968   2.722  -9.381  0.00  0.00    -0.153 OA
ATOM      3  O   UNL     1     -16.923   2.707 -10.838  0.00  0.00    -0.153 OA
ENDROOT
BRANCH   1   4
ATOM      4  C   UNL     1     -16.783   1.526  -8.548  0.00  0.00    +0.106 A 
ATOM      5  C   UNL     1     -15.789   1.823  -7.615  0.00  0.00    +0.034 A 
ATOM      6  C   UNL     1     -15.261   0.801  -6.808  0.00  0.00    -0.025 A 
ATOM      7  C   UNL     1     -14.172   1.131  -5.817  0.00  0.00    +0.038 C 
ATOM      8  C   UNL     1     -13.471  -0.123  -5.303  0.00  0.00    +0.023 C 
ATOM      9  C   UNL     1     -14.511  -1.169  -4.932  0.00  0.00    +0.102 C 
ATOM     10  N   UNL     1     -15.270  -1.556  -6.114  0.00  0.00    -0.344 N 
ATOM     11  H   UNL     1     -15.964  -2.276  -5.932  0.00  0.00    +0.146 HD
ATOM     12  C   UNL     1     -15.791  -0.501  -6.880  0.00  0.00    +0.030 A 
ATOM     13  C   UNL     1     -16.770  -0.783  -7.840  0.00  0.00    +0.025 A 
ATOM     14  C   UNL     1     -17.275   0.224  -8.663  0.00  0.00    +0.030 A 
ENDBRANCH   1   4
BRANCH   1  24
ATOM     15  C   UNL     1     -17.644   4.901  -7.665  0.00  0.00    +0.083 C 
ATOM     16  C   UNL     1     -18.554   6.026  -8.260  0.00  0.00    +0.008 C 
ATOM     17  C   UNL     1     -19.368   6.803  -7.266  0.00  0.00    +0.005 C 
ATOM     18  C   UNL     1     -18.684   6.300  -5.898  0.00  0.00    +0.000 C 
ATOM     19  C   UNL     1     -19.216   4.822  -5.592  0.00  0.00    +0.002 C 
ATOM     20  C   UNL     1     -18.224   6.628  -9.593  0.00  0.00    +0.006 C 
ATOM     21  C   UNL     1     -17.411   5.853 -10.585  0.00  0.00    +0.017 C 
ATOM     22  C   UNL     1     -16.304   5.233  -9.615  0.00  0.00    +0.110 C 
ATOM     23  C   UNL     1     -18.402   4.045  -6.586  0.00  0.00    +0.021 C 
ATOM     24  N   UNL     1     -16.960   4.210  -8.767  0.00  0.00    -0.173 NA
ENDBRANCH   1  24
TORSDOF 2
ENDMDL
MODEL 9
REMARK VINA RESULT:      -6.6      6.745      8.716
REMARK  Name = min_compound990.pdb
REMARK  2 active torsions:
REMARK  status: ('A' for Active; 'I' for Inactive)
REMARK    1  A    between atoms: _3  and  _24
REMARK    2  A    between atoms: _10  and  _24
REMARK                            x       y       z     vdW  Elec       q    Type
REMARK                         _______ _______ _______ _____ _____    ______ ____
ROOT
ATOM      1  S   UNL     1     -18.148   3.829  -8.031  0.00  0.00    +0.061 S 
ATOM      2  O   UNL     1     -17.337   4.983  -7.710  0.00  0.00    -0.153 OA
ATOM      3  O   UNL     1     -19.444   3.651  -7.407  0.00  0.00    -0.153 OA
ENDROOT
BRANCH   1   4
ATOM      4  C   UNL     1     -17.223   2.359  -7.640  0.00  0.00    +0.106 A 
ATOM      5  C   UNL     1     -16.323   2.341  -6.574  0.00  0.00    +0.034 A 
ATOM      6  C   UNL     1     -15.654   1.150  -6.244  0.00  0.00    -0.025 A 
ATOM      7  C   UNL     1     -14.669   1.147  -5.103  0.00  0.00    +0.038 C 
ATOM      8  C   UNL     1     -13.781  -0.094  -5.119  0.00  0.00    +0.023 C 
ATOM      9  C   UNL     1     -14.639  -1.328  -5.352  0.00  0.00    +0.102 C 
ATOM     10  N   UNL     1     -15.284  -1.245  -6.656  0.00  0.00    -0.344 N 
ATOM     11  H   UNL     1     -15.851  -2.058  -6.880  0.00  0.00    +0.146 HD
ATOM     12  C   UNL     1     -15.953  -0.042  -6.933  0.00  0.00    +0.030 A 
ATOM     13  C   UNL     1     -16.840   0.004  -8.015  0.00  0.00    +0.025 A 
ATOM     14  C   UNL     1     -17.483   1.192  -8.363  0.00  0.00    +0.030 A 
ENDBRANCH   1   4
BRANCH   1  24
ATOM     15  C   UNL     1     -17.347   4.179 -10.692  0.00  0.00    +0.083 C 
ATOM     16  C   UNL     1     -17.736   5.631 -11.124  0.00  0.00    +0.008 C 
ATOM     17  C   UNL     1     -16.805   6.297 -12.095  0.00  0.00    +0.005 C 
ATOM     18  C   UNL     1     -15.906   5.032 -12.524  0.00  0.00    +0.000 C 
ATOM     19  C   UNL     1     -14.884   4.724 -11.332  0.00  0.00    +0.002 C 
ATOM     20  C   UNL     1     -19.162   6.085 -11.020  0.00  0.00    +0.006 C 
ATOM     21  C   UNL     1     -20.092   5.420 -10.050  0.00  0.00    +0.017 C 
ATOM     22  C   UNL     1     -19.681   3.892 -10.273  0.00  0.00    +0.110 C 
ATOM     23  C   UNL     1     -15.814   4.059 -10.361  0.00  0.00    +0.021 C 
ATOM     24  N   UNL     1     -18.325   3.696  -9.708  0.00  0.00    -0.173 NA
ENDBRANCH   1  24
TORSDOF 2
ENDMDL
