MODEL 1
REMARK VINA RESULT:      -6.3      0.000      0.000
REMARK  Name = min_compound940.pdb
REMARK  6 active torsions:
REMARK  status: ('A' for Active; 'I' for Inactive)
REMARK    1  A    between atoms: _3  and  _17
REMARK    2  A    between atoms: _5  and  _16
REMARK    3  A    between atoms: _8  and  _18
REMARK    4  A    between atoms: _10  and  _19
REMARK    5  A    between atoms: _11  and  _12
REMARK    6  A    between atoms: _15  and  _16
REMARK                            x       y       z     vdW  Elec       q    Type
REMARK                         _______ _______ _______ _____ _____    ______ ____
ROOT
ATOM      1  N   UNL     1     -12.788   7.630 -18.126  0.00  0.00    -0.251 NA
ATOM      2  C   UNL     1     -11.852   6.792 -18.492  0.00  0.00    +0.183 C 
ATOM      3  N   UNL     1     -11.736   5.468 -18.272  0.00  0.00    -0.290 N 
ATOM      4  H   UNL     1     -10.983   4.927 -18.602  0.00  0.00    +0.154 HD
ATOM      5  C   UNL     1     -12.759   4.959 -17.550  0.00  0.00    +0.131 A 
ATOM      6  N   UNL     1     -12.990   3.700 -17.064  0.00  0.00    -0.309 N 
ATOM      7  C   UNL     1     -14.152   3.783 -16.336  0.00  0.00    +0.201 A 
ATOM      8  N   UNL     1     -14.675   4.999 -16.335  0.00  0.00    -0.235 NA
ATOM      9  C   UNL     1     -13.813   5.717 -17.118  0.00  0.00    +0.120 A 
ATOM     10  C   UNL     1     -13.842   7.097 -17.430  0.00  0.00    +0.224 C 
ENDROOT
BRANCH   6  11
ATOM     11  C   UNL     1     -12.072   2.593 -17.198  0.00  0.00    +0.144 C 
ATOM     12  C   UNL     1     -10.753   2.551 -16.396  0.00  0.00    +0.174 C 
ATOM     13  C   UNL     1     -10.382   1.043 -16.432  0.00  0.00    +0.173 C 
ATOM     14  C   UNL     1     -11.728   0.374 -16.469  0.00  0.00    -0.016 C 
ATOM     15  C   UNL     1     -12.671   1.248 -16.856  0.00  0.00    +0.004 C 
BRANCH  12  16
ATOM     16  O   UNL     1     -10.874   2.958 -15.019  0.00  0.00    -0.387 OA
ATOM     17  H   UNL     1     -11.839   3.007 -14.861  0.00  0.00    +0.210 HD
ENDBRANCH  12  16
BRANCH  13  18
ATOM     18  O   UNL     1      -9.635   0.712 -15.263  0.00  0.00    -0.385 OA
ATOM     19  H   UNL     1      -9.282  -0.193 -15.418  0.00  0.00    +0.210 HD
ENDBRANCH  13  18
BRANCH  14  20
ATOM     20  C   UNL     1     -11.927  -1.073 -16.215  0.00  0.00    +0.189 C 
BRANCH  20  21
ATOM     21  O   UNL     1     -13.320  -1.322 -16.057  0.00  0.00    -0.391 OA
ATOM     22  H   UNL     1     -13.412  -1.785 -15.206  0.00  0.00    +0.210 HD
ENDBRANCH  20  21
ENDBRANCH  14  20
ENDBRANCH   6  11
BRANCH  10  23
ATOM     23  N   UNL     1     -14.732   8.011 -16.810  0.00  0.00    -0.304 NA
ATOM     24  H   UNL     1     -14.340   8.233 -15.906  0.00  0.00    +0.121 HD
ATOM     25  H   UNL     1     -15.643   7.572 -16.761  0.00  0.00    +0.121 HD
ENDBRANCH  10  23
TORSDOF 6
ENDMDL
MODEL 2
REMARK VINA RESULT:      -6.0      1.262      2.227
REMARK  Name = min_compound940.pdb
REMARK  6 active torsions:
REMARK  status: ('A' for Active; 'I' for Inactive)
REMARK    1  A    between atoms: _3  and  _17
REMARK    2  A    between atoms: _5  and  _16
REMARK    3  A    between atoms: _8  and  _18
REMARK    4  A    between atoms: _10  and  _19
REMARK    5  A    between atoms: _11  and  _12
REMARK    6  A    between atoms: _15  and  _16
REMARK                            x       y       z     vdW  Elec       q    Type
REMARK                         _______ _______ _______ _____ _____    ______ ____
ROOT
ATOM      1  N   UNL     1     -15.469   5.184 -14.984  0.00  0.00    -0.251 NA
ATOM      2  C   UNL     1     -14.705   4.187 -14.620  0.00  0.00    +0.183 C 
ATOM      3  N   UNL     1     -13.704   3.572 -15.279  0.00  0.00    -0.290 N 
ATOM      4  H   UNL     1     -13.185   2.825 -14.903  0.00  0.00    +0.154 HD
ATOM      5  C   UNL     1     -13.485   4.088 -16.509  0.00  0.00    +0.131 A 
ATOM      6  N   UNL     1     -12.623   3.721 -17.507  0.00  0.00    -0.309 N 
ATOM      7  C   UNL     1     -12.892   4.555 -18.566  0.00  0.00    +0.201 A 
ATOM      8  N   UNL     1     -13.855   5.425 -18.304  0.00  0.00    -0.235 NA
ATOM      9  C   UNL     1     -14.197   5.142 -17.011  0.00  0.00    +0.120 A 
ATOM     10  C   UNL     1     -15.213   5.727 -16.217  0.00  0.00    +0.224 C 
ENDROOT
BRANCH   6  11
ATOM     11  C   UNL     1     -11.743   2.576 -17.446  0.00  0.00    +0.144 C 
ATOM     12  C   UNL     1     -10.534   2.551 -16.486  0.00  0.00    +0.174 C 
ATOM     13  C   UNL     1     -10.226   1.033 -16.369  0.00  0.00    +0.173 C 
ATOM     14  C   UNL     1     -11.585   0.408 -16.525  0.00  0.00    -0.016 C 
ATOM     15  C   UNL     1     -12.436   1.282 -17.087  0.00  0.00    +0.004 C 
BRANCH  12  16
ATOM     16  O   UNL     1     -10.804   3.065 -15.167  0.00  0.00    -0.387 OA
ATOM     17  H   UNL     1     -11.781   3.097 -15.111  0.00  0.00    +0.210 HD
ENDBRANCH  12  16
BRANCH  13  18
ATOM     18  O   UNL     1      -9.642   0.766 -15.095  0.00  0.00    -0.385 OA
ATOM     19  H   UNL     1      -9.903  -0.155 -14.869  0.00  0.00    +0.210 HD
ENDBRANCH  13  18
BRANCH  14  20
ATOM     20  C   UNL     1     -11.876  -1.007 -16.195  0.00  0.00    +0.189 C 
BRANCH  20  21
ATOM     21  O   UNL     1     -13.287  -1.183 -16.136  0.00  0.00    -0.391 OA
ATOM     22  H   UNL     1     -13.451  -1.758 -15.368  0.00  0.00    +0.210 HD
ENDBRANCH  20  21
ENDBRANCH  14  20
ENDBRANCH   6  11
BRANCH  10  23
ATOM     23  N   UNL     1     -16.177   6.629 -16.736  0.00  0.00    -0.304 NA
ATOM     24  H   UNL     1     -17.058   6.398 -16.300  0.00  0.00    +0.121 HD
ATOM     25  H   UNL     1     -16.183   6.529 -17.744  0.00  0.00    +0.121 HD
ENDBRANCH  10  23
TORSDOF 6
ENDMDL
MODEL 3
REMARK VINA RESULT:      -5.8      3.199      3.800
REMARK  Name = min_compound940.pdb
REMARK  6 active torsions:
REMARK  status: ('A' for Active; 'I' for Inactive)
REMARK    1  A    between atoms: _3  and  _17
REMARK    2  A    between atoms: _5  and  _16
REMARK    3  A    between atoms: _8  and  _18
REMARK    4  A    between atoms: _10  and  _19
REMARK    5  A    between atoms: _11  and  _12
REMARK    6  A    between atoms: _15  and  _16
REMARK                            x       y       z     vdW  Elec       q    Type
REMARK                         _______ _______ _______ _____ _____    ______ ____
ROOT
ATOM      1  N   UNL     1     -14.802   2.222 -22.386  0.00  0.00    -0.251 NA
ATOM      2  C   UNL     1     -13.684   1.618 -22.077  0.00  0.00    +0.183 C 
ATOM      3  N   UNL     1     -13.000   1.591 -20.917  0.00  0.00    -0.290 N 
ATOM      4  H   UNL     1     -12.161   1.092 -20.793  0.00  0.00    +0.154 HD
ATOM      5  C   UNL     1     -13.585   2.321 -19.941  0.00  0.00    +0.131 A 
ATOM      6  N   UNL     1     -13.194   2.603 -18.660  0.00  0.00    -0.309 N 
ATOM      7  C   UNL     1     -14.144   3.457 -18.153  0.00  0.00    +0.201 A 
ATOM      8  N   UNL     1     -15.109   3.725 -19.019  0.00  0.00    -0.235 NA
ATOM      9  C   UNL     1     -14.765   2.990 -20.119  0.00  0.00    +0.120 A 
ATOM     10  C   UNL     1     -15.409   2.927 -21.378  0.00  0.00    +0.224 C 
ENDROOT
BRANCH   6  11
ATOM     11  C   UNL     1     -11.941   2.181 -18.077  0.00  0.00    +0.144 C 
ATOM     12  C   UNL     1     -11.452   2.762 -16.733  0.00  0.00    +0.174 C 
ATOM     13  C   UNL     1     -10.420   1.701 -16.260  0.00  0.00    +0.173 C 
ATOM     14  C   UNL     1     -10.977   0.425 -16.828  0.00  0.00    -0.016 C 
ATOM     15  C   UNL     1     -11.852   0.696 -17.810  0.00  0.00    +0.004 C 
BRANCH  12  16
ATOM     16  O   UNL     1     -12.474   2.885 -15.724  0.00  0.00    -0.387 OA
ATOM     17  H   UNL     1     -11.982   3.042 -14.893  0.00  0.00    +0.210 HD
ENDBRANCH  12  16
BRANCH  13  18
ATOM     18  O   UNL     1     -10.371   1.693 -14.834  0.00  0.00    -0.385 OA
ATOM     19  H   UNL     1     -10.920   0.927 -14.552  0.00  0.00    +0.210 HD
ENDBRANCH  13  18
BRANCH  14  20
ATOM     20  C   UNL     1     -10.520  -0.922 -16.411  0.00  0.00    +0.189 C 
BRANCH  20  21
ATOM     21  O   UNL     1      -9.204  -0.814 -15.879  0.00  0.00    -0.391 OA
ATOM     22  H   UNL     1      -9.289  -0.985 -14.925  0.00  0.00    +0.210 HD
ENDBRANCH  20  21
ENDBRANCH  14  20
ENDBRANCH   6  11
BRANCH  10  23
ATOM     23  N   UNL     1     -16.473   3.789 -21.746  0.00  0.00    -0.304 NA
ATOM     24  H   UNL     1     -17.237   3.597 -21.114  0.00  0.00    +0.121 HD
ATOM     25  H   UNL     1     -16.695   3.609 -22.718  0.00  0.00    +0.121 HD
ENDBRANCH  10  23
TORSDOF 6
ENDMDL
MODEL 4
REMARK VINA RESULT:      -5.8      9.385     10.404
REMARK  Name = min_compound940.pdb
REMARK  6 active torsions:
REMARK  status: ('A' for Active; 'I' for Inactive)
REMARK    1  A    between atoms: _3  and  _17
REMARK    2  A    between atoms: _5  and  _16
REMARK    3  A    between atoms: _8  and  _18
REMARK    4  A    between atoms: _10  and  _19
REMARK    5  A    between atoms: _11  and  _12
REMARK    6  A    between atoms: _15  and  _16
REMARK                            x       y       z     vdW  Elec       q    Type
REMARK                         _______ _______ _______ _____ _____    ______ ____
ROOT
ATOM      1  N   UNL     1     -16.215   5.124 -10.287  0.00  0.00    -0.251 NA
ATOM      2  C   UNL     1     -15.958   3.855 -10.102  0.00  0.00    +0.183 C 
ATOM      3  N   UNL     1     -16.224   3.058  -9.049  0.00  0.00    -0.290 N 
ATOM      4  H   UNL     1     -15.988   2.103  -9.018  0.00  0.00    +0.154 HD
ATOM      5  C   UNL     1     -16.849   3.704  -8.040  0.00  0.00    +0.131 A 
ATOM      6  N   UNL     1     -17.233   3.287  -6.794  0.00  0.00    -0.309 N 
ATOM      7  C   UNL     1     -17.754   4.394  -6.168  0.00  0.00    +0.201 A 
ATOM      8  N   UNL     1     -17.735   5.474  -6.932  0.00  0.00    -0.235 NA
ATOM      9  C   UNL     1     -17.194   5.026  -8.105  0.00  0.00    +0.120 A 
ATOM     10  C   UNL     1     -16.886   5.762  -9.274  0.00  0.00    +0.224 C 
ENDROOT
BRANCH   6  11
ATOM     11  C   UNL     1     -16.967   1.973  -6.256  0.00  0.00    +0.144 C 
ATOM     12  C   UNL     1     -17.697   0.726  -6.801  0.00  0.00    +0.174 C 
ATOM     13  C   UNL     1     -16.770  -0.435  -6.349  0.00  0.00    +0.173 C 
ATOM     14  C   UNL     1     -15.409   0.203  -6.371  0.00  0.00    -0.016 C 
ATOM     15  C   UNL     1     -15.522   1.541  -6.360  0.00  0.00    +0.004 C 
BRANCH  12  16
ATOM     16  O   UNL     1     -17.818   0.681  -8.237  0.00  0.00    -0.387 OA
ATOM     17  H   UNL     1     -18.739   0.389  -8.397  0.00  0.00    +0.210 HD
ENDBRANCH  12  16
BRANCH  13  18
ATOM     18  O   UNL     1     -16.885  -1.518  -7.271  0.00  0.00    -0.385 OA
ATOM     19  H   UNL     1     -17.841  -1.747  -7.296  0.00  0.00    +0.210 HD
ENDBRANCH  13  18
BRANCH  14  20
ATOM     20  C   UNL     1     -14.145  -0.568  -6.304  0.00  0.00    +0.189 C 
BRANCH  20  21
ATOM     21  O   UNL     1     -14.457  -1.945  -6.122  0.00  0.00    -0.391 OA
ATOM     22  H   UNL     1     -13.838  -2.435  -6.691  0.00  0.00    +0.210 HD
ENDBRANCH  20  21
ENDBRANCH  14  20
ENDBRANCH   6  11
BRANCH  10  23
ATOM     23  N   UNL     1     -16.952   7.177  -9.338  0.00  0.00    -0.304 NA
ATOM     24  H   UNL     1     -16.403   7.530  -8.568  0.00  0.00    +0.121 HD
ATOM     25  H   UNL     1     -17.928   7.443  -9.297  0.00  0.00    +0.121 HD
ENDBRANCH  10  23
TORSDOF 6
ENDMDL
MODEL 5
REMARK VINA RESULT:      -5.8      1.577      2.729
REMARK  Name = min_compound940.pdb
REMARK  6 active torsions:
REMARK  status: ('A' for Active; 'I' for Inactive)
REMARK    1  A    between atoms: _3  and  _17
REMARK    2  A    between atoms: _5  and  _16
REMARK    3  A    between atoms: _8  and  _18
REMARK    4  A    between atoms: _10  and  _19
REMARK    5  A    between atoms: _11  and  _12
REMARK    6  A    between atoms: _15  and  _16
REMARK                            x       y       z     vdW  Elec       q    Type
REMARK                         _______ _______ _______ _____ _____    ______ ____
ROOT
ATOM      1  N   UNL     1     -15.887   7.060 -16.355  0.00  0.00    -0.251 NA
ATOM      2  C   UNL     1     -16.007   5.857 -15.855  0.00  0.00    +0.183 C 
ATOM      3  N   UNL     1     -15.120   4.846 -15.800  0.00  0.00    -0.290 N 
ATOM      4  H   UNL     1     -15.317   3.972 -15.390  0.00  0.00    +0.154 HD
ATOM      5  C   UNL     1     -13.931   5.152 -16.366  0.00  0.00    +0.131 A 
ATOM      6  N   UNL     1     -12.804   4.404 -16.573  0.00  0.00    -0.309 N 
ATOM      7  C   UNL     1     -11.934   5.212 -17.264  0.00  0.00    +0.201 A 
ATOM      8  N   UNL     1     -12.428   6.418 -17.499  0.00  0.00    -0.235 NA
ATOM      9  C   UNL     1     -13.661   6.377 -16.911  0.00  0.00    +0.120 A 
ATOM     10  C   UNL     1     -14.664   7.376 -16.890  0.00  0.00    +0.224 C 
ENDROOT
BRANCH   6  11
ATOM     11  C   UNL     1     -12.683   3.002 -16.244  0.00  0.00    +0.144 C 
ATOM     12  C   UNL     1     -12.990   1.908 -17.290  0.00  0.00    +0.174 C 
ATOM     13  C   UNL     1     -12.252   0.670 -16.713  0.00  0.00    +0.173 C 
ATOM     14  C   UNL     1     -11.078   1.287 -16.004  0.00  0.00    -0.016 C 
ATOM     15  C   UNL     1     -11.303   2.592 -15.781  0.00  0.00    +0.004 C 
BRANCH  12  16
ATOM     16  O   UNL     1     -12.472   2.176 -18.608  0.00  0.00    -0.387 OA
ATOM     17  H   UNL     1     -13.184   1.890 -19.216  0.00  0.00    +0.210 HD
ENDBRANCH  12  16
BRANCH  13  18
ATOM     18  O   UNL     1     -11.859  -0.187 -17.784  0.00  0.00    -0.385 OA
ATOM     19  H   UNL     1     -11.416  -0.957 -17.361  0.00  0.00    +0.210 HD
ENDBRANCH  13  18
BRANCH  14  20
ATOM     20  C   UNL     1      -9.905   0.510 -15.538  0.00  0.00    +0.189 C 
BRANCH  20  21
ATOM     21  O   UNL     1     -10.204  -0.878 -15.645  0.00  0.00    -0.391 OA
ATOM     22  H   UNL     1     -10.153  -1.088 -16.594  0.00  0.00    +0.210 HD
ENDBRANCH  20  21
ENDBRANCH  14  20
ENDBRANCH   6  11
BRANCH  10  23
ATOM     23  N   UNL     1     -14.586   8.567 -17.656  0.00  0.00    -0.304 NA
ATOM     24  H   UNL     1     -13.857   9.131 -17.245  0.00  0.00    +0.121 HD
ATOM     25  H   UNL     1     -15.499   9.006 -17.640  0.00  0.00    +0.121 HD
ENDBRANCH  10  23
TORSDOF 6
ENDMDL
MODEL 6
REMARK VINA RESULT:      -5.7      1.512      2.148
REMARK  Name = min_compound940.pdb
REMARK  6 active torsions:
REMARK  status: ('A' for Active; 'I' for Inactive)
REMARK    1  A    between atoms: _3  and  _17
REMARK    2  A    between atoms: _5  and  _16
REMARK    3  A    between atoms: _8  and  _18
REMARK    4  A    between atoms: _10  and  _19
REMARK    5  A    between atoms: _11  and  _12
REMARK    6  A    between atoms: _15  and  _16
REMARK                            x       y       z     vdW  Elec       q    Type
REMARK                         _______ _______ _______ _____ _____    ______ ____
ROOT
ATOM      1  N   UNL     1     -12.966   7.584 -18.115  0.00  0.00    -0.251 NA
ATOM      2  C   UNL     1     -12.270   6.480 -18.210  0.00  0.00    +0.183 C 
ATOM      3  N   UNL     1     -12.511   5.255 -17.706  0.00  0.00    -0.290 N 
ATOM      4  H   UNL     1     -11.915   4.483 -17.846  0.00  0.00    +0.154 HD
ATOM      5  C   UNL     1     -13.656   5.192 -16.990  0.00  0.00    +0.131 A 
ATOM      6  N   UNL     1     -14.224   4.174 -16.272  0.00  0.00    -0.309 N 
ATOM      7  C   UNL     1     -15.347   4.705 -15.686  0.00  0.00    +0.201 A 
ATOM      8  N   UNL     1     -15.533   5.980 -15.989  0.00  0.00    -0.235 NA
ATOM      9  C   UNL     1     -14.488   6.265 -16.823  0.00  0.00    +0.120 A 
ATOM     10  C   UNL     1     -14.145   7.502 -17.421  0.00  0.00    +0.224 C 
ENDROOT
BRANCH   6  11
ATOM     11  C   UNL     1     -13.623   2.873 -16.086  0.00  0.00    +0.144 C 
ATOM     12  C   UNL     1     -13.574   1.845 -17.237  0.00  0.00    +0.174 C 
ATOM     13  C   UNL     1     -12.441   0.884 -16.786  0.00  0.00    +0.173 C 
ATOM     14  C   UNL     1     -11.524   1.794 -16.016  0.00  0.00    -0.016 C 
ATOM     15  C   UNL     1     -12.172   2.916 -15.663  0.00  0.00    +0.004 C 
BRANCH  12  16
ATOM     16  O   UNL     1     -13.220   2.398 -18.520  0.00  0.00    -0.387 OA
ATOM     17  H   UNL     1     -13.680   1.827 -19.169  0.00  0.00    +0.210 HD
ENDBRANCH  12  16
BRANCH  13  18
ATOM     18  O   UNL     1     -11.815   0.319 -17.936  0.00  0.00    -0.385 OA
ATOM     19  H   UNL     1     -12.409  -0.405 -18.236  0.00  0.00    +0.210 HD
ENDBRANCH  13  18
BRANCH  14  20
ATOM     20  C   UNL     1     -10.143   1.423 -15.628  0.00  0.00    +0.189 C 
BRANCH  20  21
ATOM     21  O   UNL     1     -10.047   0.004 -15.575  0.00  0.00    -0.391 OA
ATOM     22  H   UNL     1      -9.189  -0.219 -15.978  0.00  0.00    +0.210 HD
ENDBRANCH  20  21
ENDBRANCH  14  20
ENDBRANCH   6  11
BRANCH  10  23
ATOM     23  N   UNL     1     -14.784   8.723 -17.090  0.00  0.00    -0.304 NA
ATOM     24  H   UNL     1     -15.028   9.171 -17.961  0.00  0.00    +0.121 HD
ATOM     25  H   UNL     1     -14.144   9.264 -16.521  0.00  0.00    +0.121 HD
ENDBRANCH  10  23
TORSDOF 6
ENDMDL
MODEL 7
REMARK VINA RESULT:      -5.7     14.346     16.180
REMARK  Name = min_compound940.pdb
REMARK  6 active torsions:
REMARK  status: ('A' for Active; 'I' for Inactive)
REMARK    1  A    between atoms: _3  and  _17
REMARK    2  A    between atoms: _5  and  _16
REMARK    3  A    between atoms: _8  and  _18
REMARK    4  A    between atoms: _10  and  _19
REMARK    5  A    between atoms: _11  and  _12
REMARK    6  A    between atoms: _15  and  _16
REMARK                            x       y       z     vdW  Elec       q    Type
REMARK                         _______ _______ _______ _____ _____    ______ ____
ROOT
ATOM      1  N   UNL     1     -14.841  -6.306  -1.519  0.00  0.00    -0.251 NA
ATOM      2  C   UNL     1     -13.818  -5.627  -1.971  0.00  0.00    +0.183 C 
ATOM      3  N   UNL     1     -13.751  -4.372  -2.454  0.00  0.00    -0.290 N 
ATOM      4  H   UNL     1     -12.917  -3.953  -2.766  0.00  0.00    +0.154 HD
ATOM      5  C   UNL     1     -14.949  -3.745  -2.465  0.00  0.00    +0.131 A 
ATOM      6  N   UNL     1     -15.324  -2.511  -2.924  0.00  0.00    -0.309 N 
ATOM      7  C   UNL     1     -16.684  -2.437  -2.746  0.00  0.00    +0.201 A 
ATOM      8  N   UNL     1     -17.192  -3.532  -2.202  0.00  0.00    -0.235 NA
ATOM      9  C   UNL     1     -16.098  -4.328  -2.005  0.00  0.00    +0.120 A 
ATOM     10  C   UNL     1     -16.044  -5.648  -1.496  0.00  0.00    +0.224 C 
ENDROOT
BRANCH   6  11
ATOM     11  C   UNL     1     -14.438  -1.585  -3.592  0.00  0.00    +0.144 C 
ATOM     12  C   UNL     1     -14.631  -1.235  -5.084  0.00  0.00    +0.174 C 
ATOM     13  C   UNL     1     -13.859   0.106  -5.220  0.00  0.00    +0.173 C 
ATOM     14  C   UNL     1     -14.033   0.725  -3.861  0.00  0.00    -0.016 C 
ATOM     15  C   UNL     1     -14.394  -0.209  -2.967  0.00  0.00    +0.004 C 
BRANCH  12  16
ATOM     16  O   UNL     1     -16.000  -1.015  -5.477  0.00  0.00    -0.387 OA
ATOM     17  H   UNL     1     -15.943  -0.385  -6.225  0.00  0.00    +0.210 HD
ENDBRANCH  12  16
BRANCH  13  18
ATOM     18  O   UNL     1     -14.447   0.887  -6.259  0.00  0.00    -0.385 OA
ATOM     19  H   UNL     1     -14.448   0.312  -7.057  0.00  0.00    +0.210 HD
ENDBRANCH  13  18
BRANCH  14  20
ATOM     20  C   UNL     1     -13.733   2.147  -3.567  0.00  0.00    +0.189 C 
BRANCH  20  21
ATOM     21  O   UNL     1     -14.853   2.939  -3.946  0.00  0.00    -0.391 OA
ATOM     22  H   UNL     1     -14.727   3.143  -4.889  0.00  0.00    +0.210 HD
ENDBRANCH  20  21
ENDBRANCH  14  20
ENDBRANCH   6  11
BRANCH  10  23
ATOM     23  N   UNL     1     -17.201  -6.430  -1.253  0.00  0.00    -0.304 NA
ATOM     24  H   UNL     1     -17.401  -6.357  -0.266  0.00  0.00    +0.121 HD
ATOM     25  H   UNL     1     -17.005  -7.376  -1.559  0.00  0.00    +0.121 HD
ENDBRANCH  10  23
TORSDOF 6
ENDMDL
MODEL 8
REMARK VINA RESULT:      -5.6      3.171      5.803
REMARK  Name = min_compound940.pdb
REMARK  6 active torsions:
REMARK  status: ('A' for Active; 'I' for Inactive)
REMARK    1  A    between atoms: _3  and  _17
REMARK    2  A    between atoms: _5  and  _16
REMARK    3  A    between atoms: _8  and  _18
REMARK    4  A    between atoms: _10  and  _19
REMARK    5  A    between atoms: _11  and  _12
REMARK    6  A    between atoms: _15  and  _16
REMARK                            x       y       z     vdW  Elec       q    Type
REMARK                         _______ _______ _______ _____ _____    ______ ____
ROOT
ATOM      1  N   UNL     1     -11.224  -0.472 -16.954  0.00  0.00    -0.251 NA
ATOM      2  C   UNL     1     -12.426  -0.095 -16.602  0.00  0.00    +0.183 C 
ATOM      3  N   UNL     1     -12.949   1.139 -16.478  0.00  0.00    -0.290 N 
ATOM      4  H   UNL     1     -13.881   1.310 -16.208  0.00  0.00    +0.154 HD
ATOM      5  C   UNL     1     -12.064   2.121 -16.762  0.00  0.00    +0.131 A 
ATOM      6  N   UNL     1     -12.169   3.484 -16.700  0.00  0.00    -0.309 N 
ATOM      7  C   UNL     1     -10.928   3.975 -17.029  0.00  0.00    +0.201 A 
ATOM      8  N   UNL     1     -10.053   3.020 -17.303  0.00  0.00    -0.235 NA
ATOM      9  C   UNL     1     -10.780   1.871 -17.160  0.00  0.00    +0.120 A 
ATOM     10  C   UNL     1     -10.344   0.529 -17.280  0.00  0.00    +0.224 C 
ENDROOT
BRANCH   6  11
ATOM     11  C   UNL     1     -13.335   4.193 -16.223  0.00  0.00    +0.144 C 
ATOM     12  C   UNL     1     -14.629   4.254 -17.063  0.00  0.00    +0.174 C 
ATOM     13  C   UNL     1     -15.705   4.615 -16.003  0.00  0.00    +0.173 C 
ATOM     14  C   UNL     1     -15.172   3.962 -14.758  0.00  0.00    -0.016 C 
ATOM     15  C   UNL     1     -13.864   3.692 -14.898  0.00  0.00    +0.004 C 
BRANCH  12  16
ATOM     16  O   UNL     1     -15.000   3.008 -17.686  0.00  0.00    -0.387 OA
ATOM     17  H   UNL     1     -15.508   3.272 -18.480  0.00  0.00    +0.210 HD
ENDBRANCH  12  16
BRANCH  13  18
ATOM     18  O   UNL     1     -16.964   4.080 -16.407  0.00  0.00    -0.385 OA
ATOM     19  H   UNL     1     -17.643   4.590 -15.911  0.00  0.00    +0.210 HD
ENDBRANCH  13  18
BRANCH  14  20
ATOM     20  C   UNL     1     -15.979   3.762 -13.531  0.00  0.00    +0.189 C 
BRANCH  20  21
ATOM     21  O   UNL     1     -16.781   2.598 -13.695  0.00  0.00    -0.391 OA
ATOM     22  H   UNL     1     -17.700   2.914 -13.743  0.00  0.00    +0.210 HD
ENDBRANCH  20  21
ENDBRANCH  14  20
ENDBRANCH   6  11
BRANCH  10  23
ATOM     23  N   UNL     1      -8.980   0.168 -17.417  0.00  0.00    -0.304 NA
ATOM     24  H   UNL     1      -8.913  -0.414 -18.238  0.00  0.00    +0.121 HD
ATOM     25  H   UNL     1      -8.696  -0.299 -16.564  0.00  0.00    +0.121 HD
ENDBRANCH  10  23
TORSDOF 6
ENDMDL
MODEL 9
REMARK VINA RESULT:      -5.6      9.477     10.556
REMARK  Name = min_compound940.pdb
REMARK  6 active torsions:
REMARK  status: ('A' for Active; 'I' for Inactive)
REMARK    1  A    between atoms: _3  and  _17
REMARK    2  A    between atoms: _5  and  _16
REMARK    3  A    between atoms: _8  and  _18
REMARK    4  A    between atoms: _10  and  _19
REMARK    5  A    between atoms: _11  and  _12
REMARK    6  A    between atoms: _15  and  _16
REMARK                            x       y       z     vdW  Elec       q    Type
REMARK                         _______ _______ _______ _____ _____    ______ ____
ROOT
ATOM      1  N   UNL     1     -18.044   6.787  -8.347  0.00  0.00    -0.251 NA
ATOM      2  C   UNL     1     -18.196   6.155  -7.212  0.00  0.00    +0.183 C 
ATOM      3  N   UNL     1     -17.762   4.939  -6.829  0.00  0.00    -0.290 N 
ATOM      4  H   UNL     1     -17.931   4.558  -5.937  0.00  0.00    +0.154 HD
ATOM      5  C   UNL     1     -17.071   4.294  -7.795  0.00  0.00    +0.131 A 
ATOM      6  N   UNL     1     -16.523   3.040  -7.837  0.00  0.00    -0.309 N 
ATOM      7  C   UNL     1     -16.007   2.895  -9.102  0.00  0.00    +0.201 A 
ATOM      8  N   UNL     1     -16.183   3.968  -9.857  0.00  0.00    -0.235 NA
ATOM      9  C   UNL     1     -16.822   4.843  -9.023  0.00  0.00    +0.120 A 
ATOM     10  C   UNL     1     -17.307   6.142  -9.308  0.00  0.00    +0.224 C 
ENDROOT
BRANCH   6  11
ATOM     11  C   UNL     1     -16.641   2.062  -6.780  0.00  0.00    +0.144 C 
ATOM     12  C   UNL     1     -17.684   0.927  -6.857  0.00  0.00    +0.174 C 
ATOM     13  C   UNL     1     -17.122  -0.119  -5.855  0.00  0.00    +0.173 C 
ATOM     14  C   UNL     1     -15.637   0.088  -5.963  0.00  0.00    -0.016 C 
ATOM     15  C   UNL     1     -15.372   1.284  -6.514  0.00  0.00    +0.004 C 
BRANCH  12  16
ATOM     16  O   UNL     1     -17.799   0.304  -8.151  0.00  0.00    -0.387 OA
ATOM     17  H   UNL     1     -18.556  -0.312  -8.062  0.00  0.00    +0.210 HD
ENDBRANCH  12  16
BRANCH  13  18
ATOM     18  O   UNL     1     -17.526  -1.426  -6.261  0.00  0.00    -0.385 OA
ATOM     19  H   UNL     1     -17.187  -2.037  -5.569  0.00  0.00    +0.210 HD
ENDBRANCH  13  18
BRANCH  14  20
ATOM     20  C   UNL     1     -14.639  -0.867  -5.426  0.00  0.00    +0.189 C 
BRANCH  20  21
ATOM     21  O   UNL     1     -14.636  -2.034  -6.243  0.00  0.00    -0.391 OA
ATOM     22  H   UNL     1     -14.402  -1.730  -7.138  0.00  0.00    +0.210 HD
ENDBRANCH  20  21
ENDBRANCH  14  20
ENDBRANCH   6  11
BRANCH  10  23
ATOM     23  N   UNL     1     -17.340   6.685 -10.617  0.00  0.00    -0.304 NA
ATOM     24  H   UNL     1     -16.420   7.056 -10.804  0.00  0.00    +0.121 HD
ATOM     25  H   UNL     1     -18.073   7.385 -10.644  0.00  0.00    +0.121 HD
ENDBRANCH  10  23
TORSDOF 6
ENDMDL
