MODEL 1
REMARK VINA RESULT:      -6.7      0.000      0.000
REMARK  Name = min_compound959.pdb
REMARK  6 active torsions:
REMARK  status: ('A' for Active; 'I' for Inactive)
REMARK    1  A    between atoms: _1  and  _12
REMARK    2  A    between atoms: _6  and  _18
REMARK    3  A    between atoms: _9  and  _11
REMARK    4  A    between atoms: _9  and  _18
REMARK    5  A    between atoms: _11  and  _19
REMARK    6  A    between atoms: _19  and  _20
REMARK                            x       y       z     vdW  Elec       q    Type
REMARK                         _______ _______ _______ _____ _____    ______ ____
ROOT
ATOM      1  C   UNL     1     -12.432   1.831 -18.220  0.00  0.00    +0.338 C 
ATOM      2  N   UNL     1     -12.785   1.600 -19.511  0.00  0.00    -0.132 N 
ATOM      3  H   UNL     1     -12.575   0.829 -20.087  0.00  0.00    +0.323 HD
ATOM      4  N   UNL     1     -13.555   2.793 -19.813  0.00  0.00    -0.119 N 
ATOM      5  C   UNL     1     -14.690   2.904 -20.601  0.00  0.00    +0.069 C 
ATOM      6  C   UNL     1     -15.575   3.794 -20.091  0.00  0.00    +0.070 C 
ATOM      7  S   UNL     1     -15.081   4.501 -18.538  0.00  0.00    -0.045 S 
ATOM      8  C   UNL     1     -13.658   3.481 -18.633  0.00  0.00    +0.378 C 
ATOM      9  N   UNL     1     -12.913   2.909 -17.637  0.00  0.00    -0.031 NA
ENDROOT
BRANCH   1  10
ATOM     10  C   UNL     1     -11.552   0.865 -17.514  0.00  0.00    +0.067 A 
ATOM     11  C   UNL     1     -10.163   0.990 -17.656  0.00  0.00    +0.016 A 
ATOM     12  C   UNL     1      -9.300   0.105 -17.005  0.00  0.00    +0.001 A 
ATOM     13  C   UNL     1      -9.818  -0.910 -16.204  0.00  0.00    +0.000 A 
ATOM     14  C   UNL     1     -11.199  -1.043 -16.054  0.00  0.00    +0.001 A 
ATOM     15  C   UNL     1     -12.064  -0.159 -16.707  0.00  0.00    +0.016 A 
ENDBRANCH   1  10
BRANCH   5  16
ATOM     16  C   UNL     1     -14.809   2.091 -21.852  0.00  0.00    +0.175 C 
BRANCH  16  17
ATOM     17  C   UNL     1     -13.601   2.196 -22.757  0.00  0.00    +0.313 C 
ATOM     18  O   UNL     1     -12.689   1.377 -22.808  0.00  0.00    -0.250 OA
BRANCH  17  19
ATOM     19  O   UNL     1     -13.675   3.316 -23.537  0.00  0.00    -0.465 OA
BRANCH  19  20
ATOM     20  C   UNL     1     -12.477   4.097 -23.628  0.00  0.00    +0.229 C 
ATOM     21  C   UNL     1     -12.475   5.184 -22.572  0.00  0.00    +0.048 C 
ENDBRANCH  19  20
ENDBRANCH  17  19
ENDBRANCH  16  17
ENDBRANCH   5  16
TORSDOF 5
ENDMDL
MODEL 2
REMARK VINA RESULT:      -6.7      3.239      3.701
REMARK  Name = min_compound959.pdb
REMARK  6 active torsions:
REMARK  status: ('A' for Active; 'I' for Inactive)
REMARK    1  A    between atoms: _1  and  _12
REMARK    2  A    between atoms: _6  and  _18
REMARK    3  A    between atoms: _9  and  _11
REMARK    4  A    between atoms: _9  and  _18
REMARK    5  A    between atoms: _11  and  _19
REMARK    6  A    between atoms: _19  and  _20
REMARK                            x       y       z     vdW  Elec       q    Type
REMARK                         _______ _______ _______ _____ _____    ______ ____
ROOT
ATOM      1  C   UNL     1     -12.094   2.981 -16.789  0.00  0.00    +0.338 C 
ATOM      2  N   UNL     1     -11.526   4.114 -17.280  0.00  0.00    -0.132 N 
ATOM      3  H   UNL     1     -10.670   4.229 -17.753  0.00  0.00    +0.323 HD
ATOM      4  N   UNL     1     -12.521   5.108 -16.921  0.00  0.00    -0.119 N 
ATOM      5  C   UNL     1     -12.918   6.223 -17.643  0.00  0.00    +0.069 C 
ATOM      6  C   UNL     1     -14.249   6.450 -17.532  0.00  0.00    +0.070 C 
ATOM      7  S   UNL     1     -15.118   5.231 -16.577  0.00  0.00    -0.045 S 
ATOM      8  C   UNL     1     -13.578   4.410 -16.399  0.00  0.00    +0.378 C 
ATOM      9  N   UNL     1     -13.298   3.077 -16.267  0.00  0.00    -0.031 NA
ENDROOT
BRANCH   1  10
ATOM     10  C   UNL     1     -11.360   1.693 -16.880  0.00  0.00    +0.067 A 
ATOM     11  C   UNL     1     -12.016   0.515 -16.499  0.00  0.00    +0.016 A 
ATOM     12  C   UNL     1     -11.364  -0.718 -16.573  0.00  0.00    +0.001 A 
ATOM     13  C   UNL     1     -10.050  -0.783 -17.032  0.00  0.00    +0.000 A 
ATOM     14  C   UNL     1      -9.387   0.383 -17.415  0.00  0.00    +0.001 A 
ATOM     15  C   UNL     1     -10.039   1.618 -17.339  0.00  0.00    +0.016 A 
ENDBRANCH   1  10
BRANCH   5  16
ATOM     16  C   UNL     1     -11.903   7.012 -18.409  0.00  0.00    +0.175 C 
BRANCH  16  17
ATOM     17  C   UNL     1     -11.835   6.645 -19.876  0.00  0.00    +0.313 C 
ATOM     18  O   UNL     1     -12.399   5.683 -20.384  0.00  0.00    -0.250 OA
BRANCH  17  19
ATOM     19  O   UNL     1     -11.083   7.552 -20.568  0.00  0.00    -0.465 OA
BRANCH  19  20
ATOM     20  C   UNL     1     -11.140   7.454 -21.996  0.00  0.00    +0.229 C 
ATOM     21  C   UNL     1     -10.425   8.627 -22.636  0.00  0.00    +0.048 C 
ENDBRANCH  19  20
ENDBRANCH  17  19
ENDBRANCH  16  17
ENDBRANCH   5  16
TORSDOF 5
ENDMDL
MODEL 3
REMARK VINA RESULT:      -6.7      4.456      6.351
REMARK  Name = min_compound959.pdb
REMARK  6 active torsions:
REMARK  status: ('A' for Active; 'I' for Inactive)
REMARK    1  A    between atoms: _1  and  _12
REMARK    2  A    between atoms: _6  and  _18
REMARK    3  A    between atoms: _9  and  _11
REMARK    4  A    between atoms: _9  and  _18
REMARK    5  A    between atoms: _11  and  _19
REMARK    6  A    between atoms: _19  and  _20
REMARK                            x       y       z     vdW  Elec       q    Type
REMARK                         _______ _______ _______ _____ _____    ______ ____
ROOT
ATOM      1  C   UNL     1     -14.587   4.255 -14.920  0.00  0.00    +0.338 C 
ATOM      2  N   UNL     1     -13.440   3.558 -15.133  0.00  0.00    -0.132 N 
ATOM      3  H   UNL     1     -13.038   2.837 -14.597  0.00  0.00    +0.323 HD
ATOM      4  N   UNL     1     -12.966   4.163 -16.365  0.00  0.00    -0.119 N 
ATOM      5  C   UNL     1     -12.323   3.551 -17.429  0.00  0.00    +0.069 C 
ATOM      6  C   UNL     1     -12.718   4.061 -18.621  0.00  0.00    +0.070 C 
ATOM      7  S   UNL     1     -13.987   5.296 -18.498  0.00  0.00    -0.045 S 
ATOM      8  C   UNL     1     -13.956   5.022 -16.766  0.00  0.00    +0.378 C 
ATOM      9  N   UNL     1     -14.957   5.122 -15.838  0.00  0.00    -0.031 NA
ENDROOT
BRANCH   1  10
ATOM     10  C   UNL     1     -15.383   4.000 -13.691  0.00  0.00    +0.067 A 
ATOM     11  C   UNL     1     -15.024   4.657 -12.507  0.00  0.00    +0.016 A 
ATOM     12  C   UNL     1     -15.749   4.449 -11.331  0.00  0.00    +0.001 A 
ATOM     13  C   UNL     1     -16.843   3.586 -11.332  0.00  0.00    +0.000 A 
ATOM     14  C   UNL     1     -17.210   2.928 -12.505  0.00  0.00    +0.001 A 
ATOM     15  C   UNL     1     -16.483   3.133 -13.683  0.00  0.00    +0.016 A 
ENDBRANCH   1  10
BRANCH   5  16
ATOM     16  C   UNL     1     -11.322   2.469 -17.169  0.00  0.00    +0.175 C 
BRANCH  16  17
ATOM     17  C   UNL     1     -11.936   1.090 -17.063  0.00  0.00    +0.313 C 
ATOM     18  O   UNL     1     -12.995   0.835 -16.499  0.00  0.00    -0.250 OA
BRANCH  17  19
ATOM     19  O   UNL     1     -11.166   0.165 -17.711  0.00  0.00    -0.465 OA
BRANCH  19  20
ATOM     20  C   UNL     1      -9.781   0.137 -17.347  0.00  0.00    +0.229 C 
ATOM     21  C   UNL     1      -9.566  -0.776 -16.156  0.00  0.00    +0.048 C 
ENDBRANCH  19  20
ENDBRANCH  17  19
ENDBRANCH  16  17
ENDBRANCH   5  16
TORSDOF 5
ENDMDL
MODEL 4
REMARK VINA RESULT:      -6.6      4.176      5.603
REMARK  Name = min_compound959.pdb
REMARK  6 active torsions:
REMARK  status: ('A' for Active; 'I' for Inactive)
REMARK    1  A    between atoms: _1  and  _12
REMARK    2  A    between atoms: _6  and  _18
REMARK    3  A    between atoms: _9  and  _11
REMARK    4  A    between atoms: _9  and  _18
REMARK    5  A    between atoms: _11  and  _19
REMARK    6  A    between atoms: _19  and  _20
REMARK                            x       y       z     vdW  Elec       q    Type
REMARK                         _______ _______ _______ _____ _____    ______ ____
ROOT
ATOM      1  C   UNL     1     -12.021   2.936 -17.424  0.00  0.00    +0.338 C 
ATOM      2  N   UNL     1     -13.308   3.111 -17.028  0.00  0.00    -0.132 N 
ATOM      3  H   UNL     1     -13.900   2.496 -16.538  0.00  0.00    +0.323 HD
ATOM      4  N   UNL     1     -13.577   4.449 -17.522  0.00  0.00    -0.119 N 
ATOM      5  C   UNL     1     -14.341   5.444 -16.931  0.00  0.00    +0.069 C 
ATOM      6  C   UNL     1     -13.800   6.673 -17.113  0.00  0.00    +0.070 C 
ATOM      7  S   UNL     1     -12.248   6.663 -17.974  0.00  0.00    -0.045 S 
ATOM      8  C   UNL     1     -12.385   4.916 -18.011  0.00  0.00    +0.378 C 
ATOM      9  N   UNL     1     -11.413   3.952 -17.999  0.00  0.00    -0.031 NA
ENDROOT
BRANCH   1  10
ATOM     10  C   UNL     1     -11.347   1.635 -17.178  0.00  0.00    +0.067 A 
ATOM     11  C   UNL     1     -12.107   0.564 -16.691  0.00  0.00    +0.016 A 
ATOM     12  C   UNL     1     -11.513  -0.678 -16.451  0.00  0.00    +0.001 A 
ATOM     13  C   UNL     1     -10.153  -0.859 -16.700  0.00  0.00    +0.000 A 
ATOM     14  C   UNL     1      -9.387   0.201 -17.187  0.00  0.00    +0.001 A 
ATOM     15  C   UNL     1      -9.981   1.445 -17.425  0.00  0.00    +0.016 A 
ENDBRANCH   1  10
BRANCH   5  16
ATOM     16  C   UNL     1     -15.602   5.083 -16.210  0.00  0.00    +0.175 C 
BRANCH  16  17
ATOM     17  C   UNL     1     -15.415   4.911 -14.718  0.00  0.00    +0.313 C 
ATOM     18  O   UNL     1     -15.509   5.811 -13.891  0.00  0.00    -0.250 OA
BRANCH  17  19
ATOM     19  O   UNL     1     -15.158   3.605 -14.409  0.00  0.00    -0.465 OA
BRANCH  19  20
ATOM     20  C   UNL     1     -16.265   2.703 -14.519  0.00  0.00    +0.229 C 
ATOM     21  C   UNL     1     -17.092   2.724 -13.249  0.00  0.00    +0.048 C 
ENDBRANCH  19  20
ENDBRANCH  17  19
ENDBRANCH  16  17
ENDBRANCH   5  16
TORSDOF 5
ENDMDL
MODEL 5
REMARK VINA RESULT:      -6.6      2.886      4.102
REMARK  Name = min_compound959.pdb
REMARK  6 active torsions:
REMARK  status: ('A' for Active; 'I' for Inactive)
REMARK    1  A    between atoms: _1  and  _12
REMARK    2  A    between atoms: _6  and  _18
REMARK    3  A    between atoms: _9  and  _11
REMARK    4  A    between atoms: _9  and  _18
REMARK    5  A    between atoms: _11  and  _19
REMARK    6  A    between atoms: _19  and  _20
REMARK                            x       y       z     vdW  Elec       q    Type
REMARK                         _______ _______ _______ _____ _____    ______ ____
ROOT
ATOM      1  C   UNL     1     -12.413   1.619 -18.330  0.00  0.00    +0.338 C 
ATOM      2  N   UNL     1     -13.174   2.528 -17.667  0.00  0.00    -0.132 N 
ATOM      3  H   UNL     1     -13.177   2.760 -16.710  0.00  0.00    +0.323 HD
ATOM      4  N   UNL     1     -13.980   3.066 -18.747  0.00  0.00    -0.119 N 
ATOM      5  C   UNL     1     -14.408   4.372 -18.930  0.00  0.00    +0.069 C 
ATOM      6  C   UNL     1     -14.389   4.733 -20.235  0.00  0.00    +0.070 C 
ATOM      7  S   UNL     1     -13.754   3.484 -21.325  0.00  0.00    -0.045 S 
ATOM      8  C   UNL     1     -13.492   2.502 -19.896  0.00  0.00    +0.378 C 
ATOM      9  N   UNL     1     -12.540   1.554 -19.639  0.00  0.00    -0.031 NA
ENDROOT
BRANCH   1  10
ATOM     10  C   UNL     1     -11.465   0.762 -17.573  0.00  0.00    +0.067 A 
ATOM     11  C   UNL     1     -11.979  -0.194 -16.688  0.00  0.00    +0.016 A 
ATOM     12  C   UNL     1     -11.122  -1.024 -15.961  0.00  0.00    +0.001 A 
ATOM     13  C   UNL     1      -9.742  -0.905 -16.116  0.00  0.00    +0.000 A 
ATOM     14  C   UNL     1      -9.219   0.043 -16.995  0.00  0.00    +0.001 A 
ATOM     15  C   UNL     1     -10.077   0.875 -17.722  0.00  0.00    +0.016 A 
ENDBRANCH   1  10
BRANCH   5  16
ATOM     16  C   UNL     1     -14.827   5.189 -17.747  0.00  0.00    +0.175 C 
BRANCH  16  17
ATOM     17  C   UNL     1     -13.727   6.074 -17.204  0.00  0.00    +0.313 C 
ATOM     18  O   UNL     1     -13.718   7.298 -17.265  0.00  0.00    -0.250 OA
BRANCH  17  19
ATOM     19  O   UNL     1     -12.752   5.325 -16.607  0.00  0.00    -0.465 OA
BRANCH  19  20
ATOM     20  C   UNL     1     -11.418   5.535 -17.086  0.00  0.00    +0.229 C 
ATOM     21  C   UNL     1     -10.451   4.605 -16.381  0.00  0.00    +0.048 C 
ENDBRANCH  19  20
ENDBRANCH  17  19
ENDBRANCH  16  17
ENDBRANCH   5  16
TORSDOF 5
ENDMDL
MODEL 6
REMARK VINA RESULT:      -6.5      3.407      4.985
REMARK  Name = min_compound959.pdb
REMARK  6 active torsions:
REMARK  status: ('A' for Active; 'I' for Inactive)
REMARK    1  A    between atoms: _1  and  _12
REMARK    2  A    between atoms: _6  and  _18
REMARK    3  A    between atoms: _9  and  _11
REMARK    4  A    between atoms: _9  and  _18
REMARK    5  A    between atoms: _11  and  _19
REMARK    6  A    between atoms: _19  and  _20
REMARK                            x       y       z     vdW  Elec       q    Type
REMARK                         _______ _______ _______ _____ _____    ______ ____
ROOT
ATOM      1  C   UNL     1     -12.515   1.940 -17.897  0.00  0.00    +0.338 C 
ATOM      2  N   UNL     1     -12.994   2.900 -17.064  0.00  0.00    -0.132 N 
ATOM      3  H   UNL     1     -12.740   3.105 -16.135  0.00  0.00    +0.323 HD
ATOM      4  N   UNL     1     -13.984   3.542 -17.910  0.00  0.00    -0.119 N 
ATOM      5  C   UNL     1     -14.311   4.887 -17.978  0.00  0.00    +0.069 C 
ATOM      6  C   UNL     1     -14.576   5.280 -19.247  0.00  0.00    +0.070 C 
ATOM      7  S   UNL     1     -14.357   4.006 -20.464  0.00  0.00    -0.045 S 
ATOM      8  C   UNL     1     -13.851   2.965 -19.146  0.00  0.00    +0.378 C 
ATOM      9  N   UNL     1     -12.964   1.923 -19.134  0.00  0.00    -0.031 NA
ENDROOT
BRANCH   1  10
ATOM     10  C   UNL     1     -11.500   0.975 -17.400  0.00  0.00    +0.067 A 
ATOM     11  C   UNL     1     -11.929  -0.127 -16.649  0.00  0.00    +0.016 A 
ATOM     12  C   UNL     1     -11.008  -1.060 -16.167  0.00  0.00    +0.001 A 
ATOM     13  C   UNL     1      -9.650  -0.900 -16.436  0.00  0.00    +0.000 A 
ATOM     14  C   UNL     1      -9.212   0.193 -17.183  0.00  0.00    +0.001 A 
ATOM     15  C   UNL     1     -10.134   1.129 -17.664  0.00  0.00    +0.016 A 
ENDBRANCH   1  10
BRANCH   5  16
ATOM     16  C   UNL     1     -14.343   5.708 -16.726  0.00  0.00    +0.175 C 
BRANCH  16  17
ATOM     17  C   UNL     1     -15.385   5.249 -15.730  0.00  0.00    +0.313 C 
ATOM     18  O   UNL     1     -16.544   5.646 -15.694  0.00  0.00    -0.250 OA
BRANCH  17  19
ATOM     19  O   UNL     1     -14.868   4.303 -14.889  0.00  0.00    -0.465 OA
BRANCH  19  20
ATOM     20  C   UNL     1     -15.816   3.413 -14.288  0.00  0.00    +0.229 C 
ATOM     21  C   UNL     1     -15.945   2.146 -15.109  0.00  0.00    +0.048 C 
ENDBRANCH  19  20
ENDBRANCH  17  19
ENDBRANCH  16  17
ENDBRANCH   5  16
TORSDOF 5
ENDMDL
MODEL 7
REMARK VINA RESULT:      -6.5      3.316      4.535
REMARK  Name = min_compound959.pdb
REMARK  6 active torsions:
REMARK  status: ('A' for Active; 'I' for Inactive)
REMARK    1  A    between atoms: _1  and  _12
REMARK    2  A    between atoms: _6  and  _18
REMARK    3  A    between atoms: _9  and  _11
REMARK    4  A    between atoms: _9  and  _18
REMARK    5  A    between atoms: _11  and  _19
REMARK    6  A    between atoms: _19  and  _20
REMARK                            x       y       z     vdW  Elec       q    Type
REMARK                         _______ _______ _______ _____ _____    ______ ____
ROOT
ATOM      1  C   UNL     1     -12.387   1.920 -18.075  0.00  0.00    +0.338 C 
ATOM      2  N   UNL     1     -12.763   3.014 -17.362  0.00  0.00    -0.132 N 
ATOM      3  H   UNL     1     -12.469   3.309 -16.470  0.00  0.00    +0.323 HD
ATOM      4  N   UNL     1     -13.714   3.631 -18.269  0.00  0.00    -0.119 N 
ATOM      5  C   UNL     1     -13.926   4.981 -18.501  0.00  0.00    +0.069 C 
ATOM      6  C   UNL     1     -14.188   5.236 -19.806  0.00  0.00    +0.070 C 
ATOM      7  S   UNL     1     -14.107   3.806 -20.856  0.00  0.00    -0.045 S 
ATOM      8  C   UNL     1     -13.661   2.896 -19.425  0.00  0.00    +0.378 C 
ATOM      9  N   UNL     1     -12.866   1.790 -19.294  0.00  0.00    -0.031 NA
ENDROOT
BRANCH   1  10
ATOM     10  C   UNL     1     -11.447   0.939 -17.475  0.00  0.00    +0.067 A 
ATOM     11  C   UNL     1     -11.968  -0.117 -16.715  0.00  0.00    +0.016 A 
ATOM     12  C   UNL     1     -11.119  -1.064 -16.138  0.00  0.00    +0.001 A 
ATOM     13  C   UNL     1      -9.741  -0.964 -16.318  0.00  0.00    +0.000 A 
ATOM     14  C   UNL     1      -9.211   0.082 -17.073  0.00  0.00    +0.001 A 
ATOM     15  C   UNL     1     -10.061   1.032 -17.650  0.00  0.00    +0.016 A 
ENDBRANCH   1  10
BRANCH   5  16
ATOM     16  C   UNL     1     -13.858   5.950 -17.362  0.00  0.00    +0.175 C 
BRANCH  16  17
ATOM     17  C   UNL     1     -13.379   7.326 -17.768  0.00  0.00    +0.313 C 
ATOM     18  O   UNL     1     -12.276   7.573 -18.243  0.00  0.00    -0.250 OA
BRANCH  17  19
ATOM     19  O   UNL     1     -14.356   8.260 -17.564  0.00  0.00    -0.465 OA
BRANCH  19  20
ATOM     20  C   UNL     1     -15.320   7.948 -16.551  0.00  0.00    +0.229 C 
ATOM     21  C   UNL     1     -15.618   9.173 -15.709  0.00  0.00    +0.048 C 
ENDBRANCH  19  20
ENDBRANCH  17  19
ENDBRANCH  16  17
ENDBRANCH   5  16
TORSDOF 5
ENDMDL
MODEL 8
REMARK VINA RESULT:      -6.5     10.975     13.329
REMARK  Name = min_compound959.pdb
REMARK  6 active torsions:
REMARK  status: ('A' for Active; 'I' for Inactive)
REMARK    1  A    between atoms: _1  and  _12
REMARK    2  A    between atoms: _6  and  _18
REMARK    3  A    between atoms: _9  and  _11
REMARK    4  A    between atoms: _9  and  _18
REMARK    5  A    between atoms: _11  and  _19
REMARK    6  A    between atoms: _19  and  _20
REMARK                            x       y       z     vdW  Elec       q    Type
REMARK                         _______ _______ _______ _____ _____    ______ ____
ROOT
ATOM      1  C   UNL     1     -16.747   3.380  -9.306  0.00  0.00    +0.338 C 
ATOM      2  N   UNL     1     -16.411   2.186  -8.753  0.00  0.00    -0.132 N 
ATOM      3  H   UNL     1     -15.899   1.439  -9.141  0.00  0.00    +0.323 HD
ATOM      4  N   UNL     1     -17.009   2.305  -7.435  0.00  0.00    -0.119 N 
ATOM      5  C   UNL     1     -16.519   1.838  -6.226  0.00  0.00    +0.069 C 
ATOM      6  C   UNL     1     -16.769   2.700  -5.211  0.00  0.00    +0.070 C 
ATOM      7  S   UNL     1     -17.570   4.202  -5.715  0.00  0.00    -0.045 S 
ATOM      8  C   UNL     1     -17.486   3.587  -7.355  0.00  0.00    +0.378 C 
ATOM      9  N   UNL     1     -17.370   4.254  -8.544  0.00  0.00    -0.031 NA
ENDROOT
BRANCH   1  10
ATOM     10  C   UNL     1     -16.384   3.664 -10.718  0.00  0.00    +0.067 A 
ATOM     11  C   UNL     1     -15.311   4.526 -10.979  0.00  0.00    +0.016 A 
ATOM     12  C   UNL     1     -14.934   4.815 -12.292  0.00  0.00    +0.001 A 
ATOM     13  C   UNL     1     -15.626   4.241 -13.357  0.00  0.00    +0.000 A 
ATOM     14  C   UNL     1     -16.695   3.380 -13.110  0.00  0.00    +0.001 A 
ATOM     15  C   UNL     1     -17.074   3.091 -11.794  0.00  0.00    +0.016 A 
ENDBRANCH   1  10
BRANCH   5  16
ATOM     16  C   UNL     1     -15.819   0.515  -6.169  0.00  0.00    +0.175 C 
BRANCH  16  17
ATOM     17  C   UNL     1     -14.324   0.614  -6.380  0.00  0.00    +0.313 C 
ATOM     18  O   UNL     1     -13.785   1.191  -7.318  0.00  0.00    -0.250 OA
BRANCH  17  19
ATOM     19  O   UNL     1     -13.649  -0.003  -5.364  0.00  0.00    -0.465 OA
BRANCH  19  20
ATOM     20  C   UNL     1     -14.100   0.297  -4.038  0.00  0.00    +0.229 C 
ATOM     21  C   UNL     1     -13.374   1.512  -3.496  0.00  0.00    +0.048 C 
ENDBRANCH  19  20
ENDBRANCH  17  19
ENDBRANCH  16  17
ENDBRANCH   5  16
TORSDOF 5
ENDMDL
MODEL 9
REMARK VINA RESULT:      -6.4      4.188      5.443
REMARK  Name = min_compound959.pdb
REMARK  6 active torsions:
REMARK  status: ('A' for Active; 'I' for Inactive)
REMARK    1  A    between atoms: _1  and  _12
REMARK    2  A    between atoms: _6  and  _18
REMARK    3  A    between atoms: _9  and  _11
REMARK    4  A    between atoms: _9  and  _18
REMARK    5  A    between atoms: _11  and  _19
REMARK    6  A    between atoms: _19  and  _20
REMARK                            x       y       z     vdW  Elec       q    Type
REMARK                         _______ _______ _______ _____ _____    ______ ____
ROOT
ATOM      1  C   UNL     1     -12.026   2.879 -17.435  0.00  0.00    +0.338 C 
ATOM      2  N   UNL     1     -13.322   3.052 -17.068  0.00  0.00    -0.132 N 
ATOM      3  H   UNL     1     -13.927   2.433 -16.598  0.00  0.00    +0.323 HD
ATOM      4  N   UNL     1     -13.578   4.395 -17.556  0.00  0.00    -0.119 N 
ATOM      5  C   UNL     1     -14.355   5.385 -16.975  0.00  0.00    +0.069 C 
ATOM      6  C   UNL     1     -13.809   6.615 -17.133  0.00  0.00    +0.070 C 
ATOM      7  S   UNL     1     -12.236   6.611 -17.956  0.00  0.00    -0.045 S 
ATOM      8  C   UNL     1     -12.374   4.864 -18.012  0.00  0.00    +0.378 C 
ATOM      9  N   UNL     1     -11.403   3.899 -17.985  0.00  0.00    -0.031 NA
ENDROOT
BRANCH   1  10
ATOM     10  C   UNL     1     -11.359   1.575 -17.184  0.00  0.00    +0.067 A 
ATOM     11  C   UNL     1      -9.994   1.450 -17.471  0.00  0.00    +0.016 A 
ATOM     12  C   UNL     1      -9.327   0.243 -17.245  0.00  0.00    +0.001 A 
ATOM     13  C   UNL     1     -10.022  -0.849 -16.727  0.00  0.00    +0.000 A 
ATOM     14  C   UNL     1     -11.382  -0.736 -16.437  0.00  0.00    +0.001 A 
ATOM     15  C   UNL     1     -12.050   0.473 -16.665  0.00  0.00    +0.016 A 
ENDBRANCH   1  10
BRANCH   5  16
ATOM     16  C   UNL     1     -15.633   5.019 -16.287  0.00  0.00    +0.175 C 
BRANCH  16  17
ATOM     17  C   UNL     1     -15.481   4.824 -14.795  0.00  0.00    +0.313 C 
ATOM     18  O   UNL     1     -14.649   4.097 -14.264  0.00  0.00    -0.250 OA
BRANCH  17  19
ATOM     19  O   UNL     1     -16.379   5.594 -14.111  0.00  0.00    -0.465 OA
BRANCH  19  20
ATOM     20  C   UNL     1     -15.823   6.623 -13.284  0.00  0.00    +0.229 C 
ATOM     21  C   UNL     1     -15.603   7.887 -14.091  0.00  0.00    +0.048 C 
ENDBRANCH  19  20
ENDBRANCH  17  19
ENDBRANCH  16  17
ENDBRANCH   5  16
TORSDOF 5
ENDMDL
