MODEL 1
REMARK VINA RESULT:      -6.8      0.000      0.000
REMARK  Name = min_compound939.pdb
REMARK  4 active torsions:
REMARK  status: ('A' for Active; 'I' for Inactive)
REMARK    1  A    between atoms: _14  and  _15
REMARK    2  A    between atoms: _15  and  _18
REMARK    3  A    between atoms: _18  and  _19
REMARK    4  A    between atoms: _19  and  _20
REMARK                            x       y       z     vdW  Elec       q    Type
REMARK                         _______ _______ _______ _____ _____    ______ ____
ROOT
ATOM      1  C   UNL     1     -10.143  -0.459 -15.960  0.00  0.00    +0.005 C 
ATOM      2  C   UNL     1     -11.547  -0.784 -16.376  0.00  0.00    +0.005 C 
ATOM      3  C   UNL     1     -11.656   0.283 -17.621  0.00  0.00    +0.037 C 
ATOM      4  C   UNL     1     -11.484   1.693 -17.143  0.00  0.00    -0.023 A 
ATOM      5  C   UNL     1     -12.029   2.894 -17.693  0.00  0.00    +0.075 A 
ATOM      6  C   UNL     1     -12.913   3.078 -18.826  0.00  0.00    +0.260 A 
ATOM      7  O   UNL     1     -13.380   2.169 -19.503  0.00  0.00    -0.267 OA
ATOM      8  N   UNL     1     -13.201   4.392 -19.094  0.00  0.00    -0.301 N 
ATOM      9  H   UNL     1     -13.792   4.563 -19.894  0.00  0.00    +0.171 HD
ATOM     10  C   UNL     1     -12.698   5.441 -18.350  0.00  0.00    +0.220 A 
ATOM     11  N   UNL     1     -11.923   5.319 -17.313  0.00  0.00    -0.216 NA
ATOM     12  C   UNL     1     -11.610   4.026 -17.015  0.00  0.00    +0.116 A 
ATOM     13  S   UNL     1     -10.591   3.623 -15.698  0.00  0.00    -0.073 S 
ATOM     14  C   UNL     1     -10.696   1.963 -16.046  0.00  0.00    -0.004 A 
ATOM     15  C   UNL     1     -10.026   0.903 -15.237  0.00  0.00    +0.043 C 
ENDROOT
BRANCH  10  16
ATOM     16  C   UNL     1     -13.120   6.799 -18.875  0.00  0.00    +0.375 C 
ATOM     17  O   UNL     1     -13.532   7.668 -18.129  0.00  0.00    -0.242 OA
BRANCH  16  18
ATOM     18  O   UNL     1     -12.765   6.910 -20.170  0.00  0.00    -0.459 OA
BRANCH  18  19
ATOM     19  C   UNL     1     -11.393   7.268 -20.396  0.00  0.00    +0.229 C 
ATOM     20  C   UNL     1     -11.163   7.680 -21.836  0.00  0.00    +0.048 C 
ENDBRANCH  18  19
ENDBRANCH  16  18
ENDBRANCH  10  16
TORSDOF 3
ENDMDL
MODEL 2
REMARK VINA RESULT:      -6.8      2.005      3.043
REMARK  Name = min_compound939.pdb
REMARK  4 active torsions:
REMARK  status: ('A' for Active; 'I' for Inactive)
REMARK    1  A    between atoms: _14  and  _15
REMARK    2  A    between atoms: _15  and  _18
REMARK    3  A    between atoms: _18  and  _19
REMARK    4  A    between atoms: _19  and  _20
REMARK                            x       y       z     vdW  Elec       q    Type
REMARK                         _______ _______ _______ _____ _____    ______ ____
ROOT
ATOM      1  C   UNL     1     -10.980  -0.961 -15.849  0.00  0.00    +0.005 C 
ATOM      2  C   UNL     1      -9.632  -0.302 -15.870  0.00  0.00    +0.005 C 
ATOM      3  C   UNL     1     -10.123   1.207 -15.445  0.00  0.00    +0.037 C 
ATOM      4  C   UNL     1     -11.080   1.770 -16.452  0.00  0.00    -0.023 A 
ATOM      5  C   UNL     1     -11.304   3.137 -16.803  0.00  0.00    +0.075 A 
ATOM      6  C   UNL     1     -10.658   4.338 -16.315  0.00  0.00    +0.260 A 
ATOM      7  O   UNL     1      -9.741   4.357 -15.502  0.00  0.00    -0.267 OA
ATOM      8  N   UNL     1     -11.165   5.494 -16.850  0.00  0.00    -0.301 N 
ATOM      9  H   UNL     1     -10.759   6.355 -16.514  0.00  0.00    +0.171 HD
ATOM     10  C   UNL     1     -12.193   5.510 -17.772  0.00  0.00    +0.220 A 
ATOM     11  N   UNL     1     -12.784   4.457 -18.254  0.00  0.00    -0.216 NA
ATOM     12  C   UNL     1     -12.310   3.285 -17.743  0.00  0.00    +0.116 A 
ATOM     13  S   UNL     1     -12.947   1.768 -18.219  0.00  0.00    -0.073 S 
ATOM     14  C   UNL     1     -11.906   0.932 -17.168  0.00  0.00    -0.004 A 
ATOM     15  C   UNL     1     -11.869  -0.555 -17.047  0.00  0.00    +0.043 C 
ENDROOT
BRANCH  10  16
ATOM     16  C   UNL     1     -12.610   6.911 -18.175  0.00  0.00    +0.375 C 
ATOM     17  O   UNL     1     -11.787   7.757 -18.474  0.00  0.00    -0.242 OA
BRANCH  16  18
ATOM     18  O   UNL     1     -13.947   6.954 -18.337  0.00  0.00    -0.459 OA
BRANCH  18  19
ATOM     19  C   UNL     1     -14.593   8.099 -17.761  0.00  0.00    +0.229 C 
ATOM     20  C   UNL     1     -14.837   7.902 -16.277  0.00  0.00    +0.048 C 
ENDBRANCH  18  19
ENDBRANCH  16  18
ENDBRANCH  10  16
TORSDOF 3
ENDMDL
MODEL 3
REMARK VINA RESULT:      -6.6      2.726      2.971
REMARK  Name = min_compound939.pdb
REMARK  4 active torsions:
REMARK  status: ('A' for Active; 'I' for Inactive)
REMARK    1  A    between atoms: _14  and  _15
REMARK    2  A    between atoms: _15  and  _18
REMARK    3  A    between atoms: _18  and  _19
REMARK    4  A    between atoms: _19  and  _20
REMARK                            x       y       z     vdW  Elec       q    Type
REMARK                         _______ _______ _______ _____ _____    ______ ____
ROOT
ATOM      1  C   UNL     1     -10.004  -0.685 -17.376  0.00  0.00    +0.005 C 
ATOM      2  C   UNL     1     -10.844  -1.051 -16.188  0.00  0.00    +0.005 C 
ATOM      3  C   UNL     1     -12.199  -0.227 -16.620  0.00  0.00    +0.037 C 
ATOM      4  C   UNL     1     -11.928   1.243 -16.729  0.00  0.00    -0.023 A 
ATOM      5  C   UNL     1     -12.826   2.334 -16.519  0.00  0.00    +0.075 A 
ATOM      6  C   UNL     1     -14.217   2.325 -16.115  0.00  0.00    +0.260 A 
ATOM      7  O   UNL     1     -14.860   1.317 -15.844  0.00  0.00    -0.267 OA
ATOM      8  N   UNL     1     -14.782   3.573 -16.053  0.00  0.00    -0.301 N 
ATOM      9  H   UNL     1     -15.759   3.607 -15.802  0.00  0.00    +0.171 HD
ATOM     10  C   UNL     1     -14.086   4.730 -16.346  0.00  0.00    +0.220 A 
ATOM     11  N   UNL     1     -12.834   4.785 -16.688  0.00  0.00    -0.216 NA
ATOM     12  C   UNL     1     -12.236   3.561 -16.764  0.00  0.00    +0.116 A 
ATOM     13  S   UNL     1     -10.591   3.386 -17.211  0.00  0.00    -0.073 S 
ATOM     14  C   UNL     1     -10.679   1.692 -17.096  0.00  0.00    -0.004 A 
ATOM     15  C   UNL     1      -9.520   0.785 -17.342  0.00  0.00    +0.043 C 
ENDROOT
BRANCH  10  16
ATOM     16  C   UNL     1     -14.943   5.978 -16.254  0.00  0.00    +0.375 C 
ATOM     17  O   UNL     1     -15.929   6.021 -15.542  0.00  0.00    -0.242 OA
BRANCH  16  18
ATOM     18  O   UNL     1     -14.321   6.997 -16.881  0.00  0.00    -0.459 OA
BRANCH  18  19
ATOM     19  C   UNL     1     -14.838   8.301 -16.579  0.00  0.00    +0.229 C 
ATOM     20  C   UNL     1     -15.671   8.840 -17.726  0.00  0.00    +0.048 C 
ENDBRANCH  18  19
ENDBRANCH  16  18
ENDBRANCH  10  16
TORSDOF 3
ENDMDL
MODEL 4
REMARK VINA RESULT:      -6.3      3.132      6.504
REMARK  Name = min_compound939.pdb
REMARK  4 active torsions:
REMARK  status: ('A' for Active; 'I' for Inactive)
REMARK    1  A    between atoms: _14  and  _15
REMARK    2  A    between atoms: _15  and  _18
REMARK    3  A    between atoms: _18  and  _19
REMARK    4  A    between atoms: _19  and  _20
REMARK                            x       y       z     vdW  Elec       q    Type
REMARK                         _______ _______ _______ _____ _____    ______ ____
ROOT
ATOM      1  C   UNL     1     -14.872   8.135 -16.597  0.00  0.00    +0.005 C 
ATOM      2  C   UNL     1     -16.129   7.319 -16.671  0.00  0.00    +0.005 C 
ATOM      3  C   UNL     1     -15.577   5.999 -15.862  0.00  0.00    +0.037 C 
ATOM      4  C   UNL     1     -14.416   5.373 -16.572  0.00  0.00    -0.023 A 
ATOM      5  C   UNL     1     -14.007   4.004 -16.581  0.00  0.00    +0.075 A 
ATOM      6  C   UNL     1     -14.611   2.852 -15.944  0.00  0.00    +0.260 A 
ATOM      7  O   UNL     1     -15.647   2.879 -15.289  0.00  0.00    -0.267 OA
ATOM      8  N   UNL     1     -13.915   1.687 -16.136  0.00  0.00    -0.301 N 
ATOM      9  H   UNL     1     -14.289   0.866 -15.684  0.00  0.00    +0.171 HD
ATOM     10  C   UNL     1     -12.748   1.619 -16.872  0.00  0.00    +0.220 A 
ATOM     11  N   UNL     1     -12.186   2.621 -17.479  0.00  0.00    -0.216 NA
ATOM     12  C   UNL     1     -12.848   3.801 -17.310  0.00  0.00    +0.116 A 
ATOM     13  S   UNL     1     -12.284   5.261 -18.006  0.00  0.00    -0.073 S 
ATOM     14  C   UNL     1     -13.562   6.150 -17.325  0.00  0.00    -0.004 A 
ATOM     15  C   UNL     1     -13.758   7.614 -17.536  0.00  0.00    +0.043 C 
ENDROOT
BRANCH  10  16
ATOM     16  C   UNL     1     -12.140   0.230 -16.896  0.00  0.00    +0.375 C 
ATOM     17  O   UNL     1     -12.750  -0.738 -16.479  0.00  0.00    -0.242 OA
BRANCH  16  18
ATOM     18  O   UNL     1     -10.996   0.252 -17.609  0.00  0.00    -0.459 OA
BRANCH  18  19
ATOM     19  C   UNL     1     -10.154  -0.899 -17.443  0.00  0.00    +0.229 C 
ATOM     20  C   UNL     1      -9.368  -0.820 -16.149  0.00  0.00    +0.048 C 
ENDBRANCH  18  19
ENDBRANCH  16  18
ENDBRANCH  10  16
TORSDOF 3
ENDMDL
MODEL 5
REMARK VINA RESULT:      -6.1      3.016      6.540
REMARK  Name = min_compound939.pdb
REMARK  4 active torsions:
REMARK  status: ('A' for Active; 'I' for Inactive)
REMARK    1  A    between atoms: _14  and  _15
REMARK    2  A    between atoms: _15  and  _18
REMARK    3  A    between atoms: _18  and  _19
REMARK    4  A    between atoms: _19  and  _20
REMARK                            x       y       z     vdW  Elec       q    Type
REMARK                         _______ _______ _______ _____ _____    ______ ____
ROOT
ATOM      1  C   UNL     1     -16.075   7.611 -16.604  0.00  0.00    +0.005 C 
ATOM      2  C   UNL     1     -14.625   7.973 -16.476  0.00  0.00    +0.005 C 
ATOM      3  C   UNL     1     -14.016   6.752 -17.392  0.00  0.00    +0.037 C 
ATOM      4  C   UNL     1     -14.353   5.414 -16.806  0.00  0.00    -0.023 A 
ATOM      5  C   UNL     1     -13.623   4.189 -16.899  0.00  0.00    +0.075 A 
ATOM      6  C   UNL     1     -12.357   3.911 -17.545  0.00  0.00    +0.260 A 
ATOM      7  O   UNL     1     -11.666   4.747 -18.117  0.00  0.00    -0.267 OA
ATOM      8  N   UNL     1     -11.975   2.597 -17.468  0.00  0.00    -0.301 N 
ATOM      9  H   UNL     1     -11.110   2.357 -17.931  0.00  0.00    +0.171 HD
ATOM     10  C   UNL     1     -12.725   1.630 -16.828  0.00  0.00    +0.220 A 
ATOM     11  N   UNL     1     -13.852   1.841 -16.215  0.00  0.00    -0.216 NA
ATOM     12  C   UNL     1     -14.269   3.138 -16.272  0.00  0.00    +0.116 A 
ATOM     13  S   UNL     1     -15.735   3.648 -15.548  0.00  0.00    -0.073 S 
ATOM     14  C   UNL     1     -15.513   5.246 -16.082  0.00  0.00    -0.004 A 
ATOM     15  C   UNL     1     -16.461   6.359 -15.782  0.00  0.00    +0.043 C 
ENDROOT
BRANCH  10  16
ATOM     16  C   UNL     1     -12.116   0.245 -16.923  0.00  0.00    +0.375 C 
ATOM     17  O   UNL     1     -12.689  -0.733 -16.479  0.00  0.00    -0.242 OA
BRANCH  16  18
ATOM     18  O   UNL     1     -11.030   0.285 -17.720  0.00  0.00    -0.459 OA
BRANCH  18  19
ATOM     19  C   UNL     1     -10.070  -0.758 -17.491  0.00  0.00    +0.229 C 
ATOM     20  C   UNL     1      -9.536  -0.710 -16.073  0.00  0.00    +0.048 C 
ENDBRANCH  18  19
ENDBRANCH  16  18
ENDBRANCH  10  16
TORSDOF 3
ENDMDL
MODEL 6
REMARK VINA RESULT:      -6.0     11.072     12.222
REMARK  Name = min_compound939.pdb
REMARK  4 active torsions:
REMARK  status: ('A' for Active; 'I' for Inactive)
REMARK    1  A    between atoms: _14  and  _15
REMARK    2  A    between atoms: _15  and  _18
REMARK    3  A    between atoms: _18  and  _19
REMARK    4  A    between atoms: _19  and  _20
REMARK                            x       y       z     vdW  Elec       q    Type
REMARK                         _______ _______ _______ _____ _____    ______ ____
ROOT
ATOM      1  C   UNL     1     -13.708   0.749  -3.508  0.00  0.00    +0.005 C 
ATOM      2  C   UNL     1     -13.641   2.248  -3.495  0.00  0.00    +0.005 C 
ATOM      3  C   UNL     1     -15.191   2.537  -3.959  0.00  0.00    +0.037 C 
ATOM      4  C   UNL     1     -15.467   1.962  -5.316  0.00  0.00    -0.023 A 
ATOM      5  C   UNL     1     -16.393   2.416  -6.305  0.00  0.00    +0.075 A 
ATOM      6  C   UNL     1     -17.284   3.557  -6.287  0.00  0.00    +0.260 A 
ATOM      7  O   UNL     1     -17.356   4.374  -5.376  0.00  0.00    -0.267 OA
ATOM      8  N   UNL     1     -18.070   3.662  -7.406  0.00  0.00    -0.301 N 
ATOM      9  H   UNL     1     -18.725   4.430  -7.419  0.00  0.00    +0.171 HD
ATOM     10  C   UNL     1     -18.012   2.764  -8.454  0.00  0.00    +0.220 A 
ATOM     11  N   UNL     1     -17.212   1.742  -8.521  0.00  0.00    -0.216 NA
ATOM     12  C   UNL     1     -16.415   1.601  -7.424  0.00  0.00    +0.116 A 
ATOM     13  S   UNL     1     -15.290   0.317  -7.283  0.00  0.00    -0.073 S 
ATOM     14  C   UNL     1     -14.799   0.836  -5.741  0.00  0.00    -0.004 A 
ATOM     15  C   UNL     1     -13.739   0.159  -4.938  0.00  0.00    +0.043 C 
ENDROOT
BRANCH  10  16
ATOM     16  C   UNL     1     -19.015   3.065  -9.551  0.00  0.00    +0.375 C 
ATOM     17  O   UNL     1     -20.178   2.719  -9.462  0.00  0.00    -0.242 OA
BRANCH  16  18
ATOM     18  O   UNL     1     -18.461   3.907 -10.446  0.00  0.00    -0.459 OA
BRANCH  18  19
ATOM     19  C   UNL     1     -18.479   3.447 -11.806  0.00  0.00    +0.229 C 
ATOM     20  C   UNL     1     -17.089   3.065 -12.274  0.00  0.00    +0.048 C 
ENDBRANCH  18  19
ENDBRANCH  16  18
ENDBRANCH  10  16
TORSDOF 3
ENDMDL
MODEL 7
REMARK VINA RESULT:      -5.7     13.322     15.581
REMARK  Name = min_compound939.pdb
REMARK  4 active torsions:
REMARK  status: ('A' for Active; 'I' for Inactive)
REMARK    1  A    between atoms: _14  and  _15
REMARK    2  A    between atoms: _15  and  _18
REMARK    3  A    between atoms: _18  and  _19
REMARK    4  A    between atoms: _19  and  _20
REMARK                            x       y       z     vdW  Elec       q    Type
REMARK                         _______ _______ _______ _____ _____    ______ ____
ROOT
ATOM      1  C   UNL     1     -17.482   3.268  -8.095  0.00  0.00    +0.005 C 
ATOM      2  C   UNL     1     -16.245   2.673  -8.700  0.00  0.00    +0.005 C 
ATOM      3  C   UNL     1     -16.349   1.193  -7.992  0.00  0.00    +0.037 C 
ATOM      4  C   UNL     1     -16.292   1.301  -6.499  0.00  0.00    -0.023 A 
ATOM      5  C   UNL     1     -15.799   0.350  -5.553  0.00  0.00    +0.075 A 
ATOM      6  C   UNL     1     -15.196  -0.948  -5.773  0.00  0.00    +0.260 A 
ATOM      7  O   UNL     1     -14.975  -1.439  -6.874  0.00  0.00    -0.267 OA
ATOM      8  N   UNL     1     -14.877  -1.612  -4.616  0.00  0.00    -0.301 N 
ATOM      9  H   UNL     1     -14.479  -2.533  -4.727  0.00  0.00    +0.171 HD
ATOM     10  C   UNL     1     -15.105  -1.087  -3.359  0.00  0.00    +0.220 A 
ATOM     11  N   UNL     1     -15.620   0.082  -3.118  0.00  0.00    -0.216 NA
ATOM     12  C   UNL     1     -15.955   0.773  -4.244  0.00  0.00    +0.116 A 
ATOM     13  S   UNL     1     -16.664   2.331  -4.172  0.00  0.00    -0.073 S 
ATOM     14  C   UNL     1     -16.775   2.425  -5.865  0.00  0.00    -0.004 A 
ATOM     15  C   UNL     1     -17.317   3.609  -6.595  0.00  0.00    +0.043 C 
ENDROOT
BRANCH  10  16
ATOM     16  C   UNL     1     -14.713  -2.032  -2.240  0.00  0.00    +0.375 C 
ATOM     17  O   UNL     1     -15.109  -1.866  -1.101  0.00  0.00    -0.242 OA
BRANCH  16  18
ATOM     18  O   UNL     1     -14.089  -3.108  -2.758  0.00  0.00    -0.459 OA
BRANCH  18  19
ATOM     19  C   UNL     1     -14.538  -4.373  -2.250  0.00  0.00    +0.229 C 
ATOM     20  C   UNL     1     -13.398  -5.146  -1.616  0.00  0.00    +0.048 C 
ENDBRANCH  18  19
ENDBRANCH  16  18
ENDBRANCH  10  16
TORSDOF 3
ENDMDL
MODEL 8
REMARK VINA RESULT:      -5.7     11.978     13.184
REMARK  Name = min_compound939.pdb
REMARK  4 active torsions:
REMARK  status: ('A' for Active; 'I' for Inactive)
REMARK    1  A    between atoms: _14  and  _15
REMARK    2  A    between atoms: _15  and  _18
REMARK    3  A    between atoms: _18  and  _19
REMARK    4  A    between atoms: _19  and  _20
REMARK                            x       y       z     vdW  Elec       q    Type
REMARK                         _______ _______ _______ _____ _____    ______ ____
ROOT
ATOM      1  C   UNL     1     -15.809  -1.834  -1.734  0.00  0.00    +0.005 C 
ATOM      2  C   UNL     1     -14.489  -1.935  -2.440  0.00  0.00    +0.005 C 
ATOM      3  C   UNL     1     -14.561  -0.501  -3.238  0.00  0.00    +0.037 C 
ATOM      4  C   UNL     1     -15.735  -0.455  -4.169  0.00  0.00    -0.023 A 
ATOM      5  C   UNL     1     -15.877   0.268  -5.392  0.00  0.00    +0.075 A 
ATOM      6  C   UNL     1     -14.929   1.119  -6.082  0.00  0.00    +0.260 A 
ATOM      7  O   UNL     1     -13.780   1.330  -5.710  0.00  0.00    -0.267 OA
ATOM      8  N   UNL     1     -15.428   1.690  -7.224  0.00  0.00    -0.301 N 
ATOM      9  H   UNL     1     -14.806   2.313  -7.718  0.00  0.00    +0.171 HD
ATOM     10  C   UNL     1     -16.715   1.470  -7.676  0.00  0.00    +0.220 A 
ATOM     11  N   UNL     1     -17.588   0.697  -7.102  0.00  0.00    -0.216 NA
ATOM     12  C   UNL     1     -17.130   0.111  -5.959  0.00  0.00    +0.116 A 
ATOM     13  S   UNL     1     -18.111  -0.937  -5.025  0.00  0.00    -0.073 S 
ATOM     14  C   UNL     1     -16.882  -1.160  -3.873  0.00  0.00    -0.004 A 
ATOM     15  C   UNL     1     -17.017  -2.043  -2.678  0.00  0.00    +0.043 C 
ENDROOT
BRANCH  10  16
ATOM     16  C   UNL     1     -17.046   2.254  -8.931  0.00  0.00    +0.375 C 
ATOM     17  O   UNL     1     -18.190   2.351  -9.336  0.00  0.00    -0.242 OA
BRANCH  16  18
ATOM     18  O   UNL     1     -15.957   2.938  -9.335  0.00  0.00    -0.459 OA
BRANCH  18  19
ATOM     19  C   UNL     1     -16.223   4.244  -9.867  0.00  0.00    +0.229 C 
ATOM     20  C   UNL     1     -15.254   4.590 -10.981  0.00  0.00    +0.048 C 
ENDBRANCH  18  19
ENDBRANCH  16  18
ENDBRANCH  10  16
TORSDOF 3
ENDMDL
MODEL 9
REMARK VINA RESULT:      -5.4      5.833      6.907
REMARK  Name = min_compound939.pdb
REMARK  4 active torsions:
REMARK  status: ('A' for Active; 'I' for Inactive)
REMARK    1  A    between atoms: _14  and  _15
REMARK    2  A    between atoms: _15  and  _18
REMARK    3  A    between atoms: _18  and  _19
REMARK    4  A    between atoms: _19  and  _20
REMARK                            x       y       z     vdW  Elec       q    Type
REMARK                         _______ _______ _______ _____ _____    ______ ____
ROOT
ATOM      1  C   UNL     1     -16.547   2.668 -13.575  0.00  0.00    +0.005 C 
ATOM      2  C   UNL     1     -16.294   2.758 -15.051  0.00  0.00    +0.005 C 
ATOM      3  C   UNL     1     -15.424   4.152 -15.036  0.00  0.00    +0.037 C 
ATOM      4  C   UNL     1     -16.234   5.292 -14.497  0.00  0.00    -0.023 A 
ATOM      5  C   UNL     1     -16.131   6.684 -14.804  0.00  0.00    +0.075 A 
ATOM      6  C   UNL     1     -15.252   7.366 -15.730  0.00  0.00    +0.260 A 
ATOM      7  O   UNL     1     -14.438   6.811 -16.459  0.00  0.00    -0.267 OA
ATOM      8  N   UNL     1     -15.404   8.729 -15.734  0.00  0.00    -0.301 N 
ATOM      9  H   UNL     1     -14.789   9.244 -16.347  0.00  0.00    +0.171 HD
ATOM     10  C   UNL     1     -16.315   9.388 -14.931  0.00  0.00    +0.220 A 
ATOM     11  N   UNL     1     -17.138   8.813 -14.105  0.00  0.00    -0.216 NA
ATOM     12  C   UNL     1     -17.016   7.456 -14.069  0.00  0.00    +0.116 A 
ATOM     13  S   UNL     1     -17.987   6.487 -13.043  0.00  0.00    -0.073 S 
ATOM     14  C   UNL     1     -17.220   5.062 -13.562  0.00  0.00    -0.004 A 
ATOM     15  C   UNL     1     -17.587   3.700 -13.076  0.00  0.00    +0.043 C 
ENDROOT
BRANCH  10  16
ATOM     16  C   UNL     1     -16.258  10.896 -15.080  0.00  0.00    +0.375 C 
ATOM     17  O   UNL     1     -15.912  11.612 -14.158  0.00  0.00    -0.242 OA
BRANCH  16  18
ATOM     18  O   UNL     1     -16.430  11.226 -16.375  0.00  0.00    -0.459 OA
BRANCH  18  19
ATOM     19  C   UNL     1     -17.774  11.100 -16.861  0.00  0.00    +0.229 C 
ATOM     20  C   UNL     1     -17.818  10.315 -18.157  0.00  0.00    +0.048 C 
ENDBRANCH  18  19
ENDBRANCH  16  18
ENDBRANCH  10  16
TORSDOF 3
ENDMDL
