MODEL 1
REMARK VINA RESULT:      -8.1      0.000      0.000
REMARK  Name = min_compound952.pdb
REMARK  4 active torsions:
REMARK  status: ('A' for Active; 'I' for Inactive)
REMARK    1  A    between atoms: _12  and  _19
REMARK    2  A    between atoms: _17  and  _18
REMARK    3  A    between atoms: _18  and  _20
REMARK    4  A    between atoms: _20  and  _21
REMARK                            x       y       z     vdW  Elec       q    Type
REMARK                         _______ _______ _______ _____ _____    ______ ____
ROOT
ATOM      1  C   UNL     1      -9.975  -0.963 -17.313  0.00  0.00    +0.001 A 
ATOM      2  C   UNL     1      -9.516  -0.647 -16.037  0.00  0.00    +0.000 A 
ATOM      3  C   UNL     1      -9.987   0.498 -15.394  0.00  0.00    +0.004 A 
ATOM      4  C   UNL     1     -10.931   1.331 -16.020  0.00  0.00    -0.036 A 
ATOM      5  C   UNL     1     -11.402   2.589 -15.335  0.00  0.00    +0.040 C 
ATOM      6  C   UNL     1     -12.788   3.039 -15.805  0.00  0.00    +0.043 C 
ATOM      7  C   UNL     1     -12.858   3.157 -17.311  0.00  0.00    +0.001 C 
ATOM      8  C   UNL     1     -13.265   4.260 -17.977  0.00  0.00    +0.015 C 
ATOM      9  C   UNL     1     -12.375   1.927 -17.991  0.00  0.00    +0.189 C 
ATOM     10  O   UNL     1     -12.921   1.705 -19.108  0.00  0.00    -0.287 OA
ATOM     11  C   UNL     1     -11.392   1.025 -17.313  0.00  0.00    +0.025 A 
ATOM     12  C   UNL     1     -10.904  -0.132 -17.944  0.00  0.00    +0.012 A 
ENDROOT
BRANCH   8  13
ATOM     13  C   UNL     1     -13.789   5.531 -17.460  0.00  0.00    -0.024 A 
ATOM     14  C   UNL     1     -14.819   5.581 -16.512  0.00  0.00    +0.011 A 
ATOM     15  C   UNL     1     -15.397   6.806 -16.152  0.00  0.00    +0.046 A 
ATOM     16  C   UNL     1     -14.958   7.980 -16.760  0.00  0.00    +0.121 A 
ATOM     17  C   UNL     1     -13.903   7.948 -17.669  0.00  0.00    +0.046 A 
ATOM     18  C   UNL     1     -13.333   6.725 -18.030  0.00  0.00    +0.011 A 
BRANCH  16  19
ATOM     19  O   UNL     1     -15.532   9.196 -16.497  0.00  0.00    -0.492 OA
BRANCH  19  20
ATOM     20  C   UNL     1     -15.993   9.333 -15.133  0.00  0.00    +0.225 C 
ATOM     21  C   UNL     1     -16.345  10.754 -14.806  0.00  0.00    +0.048 C 
ENDBRANCH  19  20
ENDBRANCH  16  19
ENDBRANCH   8  13
TORSDOF 3
ENDMDL
MODEL 2
REMARK VINA RESULT:      -7.9      1.354      1.481
REMARK  Name = min_compound952.pdb
REMARK  4 active torsions:
REMARK  status: ('A' for Active; 'I' for Inactive)
REMARK    1  A    between atoms: _12  and  _19
REMARK    2  A    between atoms: _17  and  _18
REMARK    3  A    between atoms: _18  and  _20
REMARK    4  A    between atoms: _20  and  _21
REMARK                            x       y       z     vdW  Elec       q    Type
REMARK                         _______ _______ _______ _____ _____    ______ ____
ROOT
ATOM      1  C   UNL     1     -10.698  -0.927 -17.128  0.00  0.00    +0.001 A 
ATOM      2  C   UNL     1      -9.545  -0.171 -17.328  0.00  0.00    +0.000 A 
ATOM      3  C   UNL     1      -9.588   1.214 -17.170  0.00  0.00    +0.004 A 
ATOM      4  C   UNL     1     -10.783   1.854 -16.798  0.00  0.00    -0.036 A 
ATOM      5  C   UNL     1     -10.830   3.356 -16.671  0.00  0.00    +0.040 C 
ATOM      6  C   UNL     1     -11.930   3.838 -15.722  0.00  0.00    +0.043 C 
ATOM      7  C   UNL     1     -13.279   3.261 -16.089  0.00  0.00    +0.001 C 
ATOM      8  C   UNL     1     -14.394   3.993 -16.307  0.00  0.00    +0.015 C 
ATOM      9  C   UNL     1     -13.233   1.784 -16.236  0.00  0.00    +0.189 C 
ATOM     10  O   UNL     1     -14.317   1.201 -15.952  0.00  0.00    -0.287 OA
ATOM     11  C   UNL     1     -11.954   1.099 -16.603  0.00  0.00    +0.025 A 
ATOM     12  C   UNL     1     -11.890  -0.295 -16.769  0.00  0.00    +0.012 A 
ENDROOT
BRANCH   8  13
ATOM     13  C   UNL     1     -14.608   5.440 -16.180  0.00  0.00    -0.024 A 
ATOM     14  C   UNL     1     -15.383   5.992 -15.152  0.00  0.00    +0.011 A 
ATOM     15  C   UNL     1     -15.691   7.359 -15.147  0.00  0.00    +0.046 A 
ATOM     16  C   UNL     1     -15.241   8.171 -16.186  0.00  0.00    +0.121 A 
ATOM     17  C   UNL     1     -14.430   7.644 -17.188  0.00  0.00    +0.046 A 
ATOM     18  C   UNL     1     -14.131   6.279 -17.195  0.00  0.00    +0.011 A 
BRANCH  16  19
ATOM     19  O   UNL     1     -15.568   9.499 -16.267  0.00  0.00    -0.492 OA
BRANCH  19  20
ATOM     20  C   UNL     1     -16.419   9.951 -15.189  0.00  0.00    +0.225 C 
ATOM     21  C   UNL     1     -16.039  11.324 -14.720  0.00  0.00    +0.048 C 
ENDBRANCH  19  20
ENDBRANCH  16  19
ENDBRANCH   8  13
TORSDOF 3
ENDMDL
MODEL 3
REMARK VINA RESULT:      -7.5      1.441      2.012
REMARK  Name = min_compound952.pdb
REMARK  4 active torsions:
REMARK  status: ('A' for Active; 'I' for Inactive)
REMARK    1  A    between atoms: _12  and  _19
REMARK    2  A    between atoms: _17  and  _18
REMARK    3  A    between atoms: _18  and  _20
REMARK    4  A    between atoms: _20  and  _21
REMARK                            x       y       z     vdW  Elec       q    Type
REMARK                         _______ _______ _______ _____ _____    ______ ____
ROOT
ATOM      1  C   UNL     1      -9.810  -0.373 -16.372  0.00  0.00    +0.001 A 
ATOM      2  C   UNL     1     -11.021  -1.055 -16.286  0.00  0.00    +0.000 A 
ATOM      3  C   UNL     1     -12.221  -0.362 -16.455  0.00  0.00    +0.004 A 
ATOM      4  C   UNL     1     -12.217   1.017 -16.724  0.00  0.00    -0.036 A 
ATOM      5  C   UNL     1     -13.519   1.765 -16.864  0.00  0.00    +0.040 C 
ATOM      6  C   UNL     1     -13.389   3.032 -17.715  0.00  0.00    +0.043 C 
ATOM      7  C   UNL     1     -12.274   3.927 -17.220  0.00  0.00    +0.001 C 
ATOM      8  C   UNL     1     -12.420   5.235 -16.911  0.00  0.00    +0.015 C 
ATOM      9  C   UNL     1     -10.995   3.190 -17.062  0.00  0.00    +0.189 C 
ATOM     10  O   UNL     1      -9.964   3.898 -17.239  0.00  0.00    -0.287 OA
ATOM     11  C   UNL     1     -10.998   1.716 -16.804  0.00  0.00    +0.025 A 
ATOM     12  C   UNL     1      -9.801   1.000 -16.628  0.00  0.00    +0.012 A 
ENDROOT
BRANCH   8  13
ATOM     13  C   UNL     1     -13.597   6.104 -17.034  0.00  0.00    -0.024 A 
ATOM     14  C   UNL     1     -13.588   7.264 -17.821  0.00  0.00    +0.011 A 
ATOM     15  C   UNL     1     -14.673   8.149 -17.798  0.00  0.00    +0.046 A 
ATOM     16  C   UNL     1     -15.760   7.885 -16.968  0.00  0.00    +0.121 A 
ATOM     17  C   UNL     1     -15.802   6.712 -16.216  0.00  0.00    +0.046 A 
ATOM     18  C   UNL     1     -14.715   5.835 -16.236  0.00  0.00    +0.011 A 
BRANCH  16  19
ATOM     19  O   UNL     1     -16.818   8.749 -16.854  0.00  0.00    -0.492 OA
BRANCH  19  20
ATOM     20  C   UNL     1     -16.427  10.095 -16.499  0.00  0.00    +0.225 C 
ATOM     21  C   UNL     1     -16.379  10.286 -15.012  0.00  0.00    +0.048 C 
ENDBRANCH  19  20
ENDBRANCH  16  19
ENDBRANCH   8  13
TORSDOF 3
ENDMDL
MODEL 4
REMARK VINA RESULT:      -7.5      1.735      8.189
REMARK  Name = min_compound952.pdb
REMARK  4 active torsions:
REMARK  status: ('A' for Active; 'I' for Inactive)
REMARK    1  A    between atoms: _12  and  _19
REMARK    2  A    between atoms: _17  and  _18
REMARK    3  A    between atoms: _18  and  _20
REMARK    4  A    between atoms: _20  and  _21
REMARK                            x       y       z     vdW  Elec       q    Type
REMARK                         _______ _______ _______ _____ _____    ______ ____
ROOT
ATOM      1  C   UNL     1     -17.292   8.952 -14.634  0.00  0.00    +0.001 A 
ATOM      2  C   UNL     1     -16.599   9.719 -15.567  0.00  0.00    +0.000 A 
ATOM      3  C   UNL     1     -15.593   9.133 -16.336  0.00  0.00    +0.004 A 
ATOM      4  C   UNL     1     -15.282   7.770 -16.187  0.00  0.00    -0.036 A 
ATOM      5  C   UNL     1     -14.165   7.156 -16.992  0.00  0.00    +0.040 C 
ATOM      6  C   UNL     1     -14.331   5.646 -17.184  0.00  0.00    +0.043 C 
ATOM      7  C   UNL     1     -14.534   4.932 -15.866  0.00  0.00    +0.001 C 
ATOM      8  C   UNL     1     -13.793   3.886 -15.437  0.00  0.00    +0.015 C 
ATOM      9  C   UNL     1     -15.619   5.547 -15.060  0.00  0.00    +0.189 C 
ATOM     10  O   UNL     1     -16.228   4.736 -14.307  0.00  0.00    -0.287 OA
ATOM     11  C   UNL     1     -15.971   6.991 -15.240  0.00  0.00    +0.025 A 
ATOM     12  C   UNL     1     -16.978   7.601 -14.473  0.00  0.00    +0.012 A 
ENDROOT
BRANCH   8  13
ATOM     13  C   UNL     1     -12.716   3.156 -16.117  0.00  0.00    -0.024 A 
ATOM     14  C   UNL     1     -12.973   2.111 -17.013  0.00  0.00    +0.011 A 
ATOM     15  C   UNL     1     -11.924   1.338 -17.527  0.00  0.00    +0.046 A 
ATOM     16  C   UNL     1     -10.616   1.598 -17.125  0.00  0.00    +0.121 A 
ATOM     17  C   UNL     1     -10.342   2.664 -16.271  0.00  0.00    +0.046 A 
ATOM     18  C   UNL     1     -11.391   3.428 -15.755  0.00  0.00    +0.011 A 
BRANCH  16  19
ATOM     19  O   UNL     1      -9.559   0.832 -17.543  0.00  0.00    -0.492 OA
BRANCH  19  20
ATOM     20  C   UNL     1      -9.757  -0.585 -17.337  0.00  0.00    +0.225 C 
ATOM     21  C   UNL     1      -9.678  -0.952 -15.885  0.00  0.00    +0.048 C 
ENDBRANCH  19  20
ENDBRANCH  16  19
ENDBRANCH   8  13
TORSDOF 3
ENDMDL
MODEL 5
REMARK VINA RESULT:      -7.1      2.813      7.745
REMARK  Name = min_compound952.pdb
REMARK  4 active torsions:
REMARK  status: ('A' for Active; 'I' for Inactive)
REMARK    1  A    between atoms: _12  and  _19
REMARK    2  A    between atoms: _17  and  _18
REMARK    3  A    between atoms: _18  and  _20
REMARK    4  A    between atoms: _20  and  _21
REMARK                            x       y       z     vdW  Elec       q    Type
REMARK                         _______ _______ _______ _____ _____    ______ ____
ROOT
ATOM      1  C   UNL     1     -19.129   5.728 -13.596  0.00  0.00    +0.001 A 
ATOM      2  C   UNL     1     -19.330   4.399 -13.232  0.00  0.00    +0.000 A 
ATOM      3  C   UNL     1     -18.342   3.450 -13.494  0.00  0.00    +0.004 A 
ATOM      4  C   UNL     1     -17.137   3.827 -14.114  0.00  0.00    -0.036 A 
ATOM      5  C   UNL     1     -16.092   2.787 -14.432  0.00  0.00    +0.040 C 
ATOM      6  C   UNL     1     -14.680   3.372 -14.522  0.00  0.00    +0.043 C 
ATOM      7  C   UNL     1     -14.618   4.544 -15.476  0.00  0.00    +0.001 C 
ATOM      8  C   UNL     1     -13.754   4.647 -16.511  0.00  0.00    +0.015 C 
ATOM      9  C   UNL     1     -15.660   5.560 -15.180  0.00  0.00    +0.189 C 
ATOM     10  O   UNL     1     -15.331   6.742 -15.484  0.00  0.00    -0.287 OA
ATOM     11  C   UNL     1     -16.929   5.165 -14.494  0.00  0.00    +0.025 A 
ATOM     12  C   UNL     1     -17.939   6.105 -14.222  0.00  0.00    +0.012 A 
ENDROOT
BRANCH   8  13
ATOM     13  C   UNL     1     -12.664   3.752 -16.918  0.00  0.00    -0.024 A 
ATOM     14  C   UNL     1     -12.898   2.567 -17.629  0.00  0.00    +0.011 A 
ATOM     15  C   UNL     1     -11.855   1.663 -17.870  0.00  0.00    +0.046 A 
ATOM     16  C   UNL     1     -10.580   1.935 -17.378  0.00  0.00    +0.121 A 
ATOM     17  C   UNL     1     -10.325   3.130 -16.710  0.00  0.00    +0.046 A 
ATOM     18  C   UNL     1     -11.368   4.026 -16.465  0.00  0.00    +0.011 A 
BRANCH  16  19
ATOM     19  O   UNL     1      -9.539   1.055 -17.525  0.00  0.00    -0.492 OA
BRANCH  19  20
ATOM     20  C   UNL     1      -9.926  -0.328 -17.361  0.00  0.00    +0.225 C 
ATOM     21  C   UNL     1      -9.744  -0.792 -15.946  0.00  0.00    +0.048 C 
ENDBRANCH  19  20
ENDBRANCH  16  19
ENDBRANCH   8  13
TORSDOF 3
ENDMDL
MODEL 6
REMARK VINA RESULT:      -7.1      4.030      8.540
REMARK  Name = min_compound952.pdb
REMARK  4 active torsions:
REMARK  status: ('A' for Active; 'I' for Inactive)
REMARK    1  A    between atoms: _12  and  _19
REMARK    2  A    between atoms: _17  and  _18
REMARK    3  A    between atoms: _18  and  _20
REMARK    4  A    between atoms: _20  and  _21
REMARK                            x       y       z     vdW  Elec       q    Type
REMARK                         _______ _______ _______ _____ _____    ______ ____
ROOT
ATOM      1  C   UNL     1     -18.404   7.145  -9.811  0.00  0.00    +0.001 A 
ATOM      2  C   UNL     1     -17.734   6.400  -8.844  0.00  0.00    +0.000 A 
ATOM      3  C   UNL     1     -16.707   5.535  -9.223  0.00  0.00    +0.004 A 
ATOM      4  C   UNL     1     -16.335   5.417 -10.573  0.00  0.00    -0.036 A 
ATOM      5  C   UNL     1     -15.253   4.448 -10.978  0.00  0.00    +0.040 C 
ATOM      6  C   UNL     1     -14.560   4.842 -12.286  0.00  0.00    +0.043 C 
ATOM      7  C   UNL     1     -15.557   5.073 -13.400  0.00  0.00    +0.001 C 
ATOM      8  C   UNL     1     -15.510   4.468 -14.608  0.00  0.00    +0.015 C 
ATOM      9  C   UNL     1     -16.636   6.010 -12.998  0.00  0.00    +0.189 C 
ATOM     10  O   UNL     1     -17.115   6.687 -13.951  0.00  0.00    -0.287 OA
ATOM     11  C   UNL     1     -17.013   6.158 -11.558  0.00  0.00    +0.025 A 
ATOM     12  C   UNL     1     -18.046   7.022 -11.155  0.00  0.00    +0.012 A 
ENDROOT
BRANCH   8  13
ATOM     13  C   UNL     1     -14.509   3.548 -15.161  0.00  0.00    -0.024 A 
ATOM     14  C   UNL     1     -13.187   3.943 -15.403  0.00  0.00    +0.011 A 
ATOM     15  C   UNL     1     -12.299   3.088 -16.069  0.00  0.00    +0.046 A 
ATOM     16  C   UNL     1     -12.742   1.845 -16.515  0.00  0.00    +0.121 A 
ATOM     17  C   UNL     1     -14.040   1.422 -16.239  0.00  0.00    +0.046 A 
ATOM     18  C   UNL     1     -14.926   2.279 -15.581  0.00  0.00    +0.011 A 
BRANCH  16  19
ATOM     19  O   UNL     1     -11.938   0.997 -17.230  0.00  0.00    -0.492 OA
BRANCH  19  20
ATOM     20  C   UNL     1     -11.792  -0.308 -16.625  0.00  0.00    +0.225 C 
ATOM     21  C   UNL     1     -10.350  -0.688 -16.464  0.00  0.00    +0.048 C 
ENDBRANCH  19  20
ENDBRANCH  16  19
ENDBRANCH   8  13
TORSDOF 3
ENDMDL
MODEL 7
REMARK VINA RESULT:      -6.9      1.779      8.169
REMARK  Name = min_compound952.pdb
REMARK  4 active torsions:
REMARK  status: ('A' for Active; 'I' for Inactive)
REMARK    1  A    between atoms: _12  and  _19
REMARK    2  A    between atoms: _17  and  _18
REMARK    3  A    between atoms: _18  and  _20
REMARK    4  A    between atoms: _20  and  _21
REMARK                            x       y       z     vdW  Elec       q    Type
REMARK                         _______ _______ _______ _____ _____    ______ ____
ROOT
ATOM      1  C   UNL     1     -17.004   9.429 -17.867  0.00  0.00    +0.001 A 
ATOM      2  C   UNL     1     -18.061   8.676 -17.362  0.00  0.00    +0.000 A 
ATOM      3  C   UNL     1     -17.822   7.398 -16.855  0.00  0.00    +0.004 A 
ATOM      4  C   UNL     1     -16.520   6.869 -16.838  0.00  0.00    -0.036 A 
ATOM      5  C   UNL     1     -16.277   5.471 -16.327  0.00  0.00    +0.040 C 
ATOM      6  C   UNL     1     -14.849   5.265 -15.813  0.00  0.00    +0.043 C 
ATOM      7  C   UNL     1     -13.819   5.676 -16.841  0.00  0.00    +0.001 C 
ATOM      8  C   UNL     1     -12.813   4.886 -17.279  0.00  0.00    +0.015 C 
ATOM      9  C   UNL     1     -14.066   7.045 -17.363  0.00  0.00    +0.189 C 
ATOM     10  O   UNL     1     -13.022   7.660 -17.719  0.00  0.00    -0.287 OA
ATOM     11  C   UNL     1     -15.448   7.620 -17.354  0.00  0.00    +0.025 A 
ATOM     12  C   UNL     1     -15.711   8.903 -17.863  0.00  0.00    +0.012 A 
ENDROOT
BRANCH   8  13
ATOM     13  C   UNL     1     -12.424   3.537 -16.852  0.00  0.00    -0.024 A 
ATOM     14  C   UNL     1     -11.449   3.318 -15.869  0.00  0.00    +0.011 A 
ATOM     15  C   UNL     1     -10.994   2.023 -15.592  0.00  0.00    +0.046 A 
ATOM     16  C   UNL     1     -11.500   0.945 -16.317  0.00  0.00    +0.121 A 
ATOM     17  C   UNL     1     -12.503   1.144 -17.263  0.00  0.00    +0.046 A 
ATOM     18  C   UNL     1     -12.949   2.438 -17.542  0.00  0.00    +0.011 A 
BRANCH  16  19
ATOM     19  O   UNL     1     -11.043  -0.334 -16.136  0.00  0.00    -0.492 OA
BRANCH  19  20
ATOM     20  C   UNL     1      -9.601  -0.440 -16.163  0.00  0.00    +0.225 C 
ATOM     21  C   UNL     1      -9.061  -0.306 -17.556  0.00  0.00    +0.048 C 
ENDBRANCH  19  20
ENDBRANCH  16  19
ENDBRANCH   8  13
TORSDOF 3
ENDMDL
MODEL 8
REMARK VINA RESULT:      -6.8      3.964      5.687
REMARK  Name = min_compound952.pdb
REMARK  4 active torsions:
REMARK  status: ('A' for Active; 'I' for Inactive)
REMARK    1  A    between atoms: _12  and  _19
REMARK    2  A    between atoms: _17  and  _18
REMARK    3  A    between atoms: _18  and  _20
REMARK    4  A    between atoms: _20  and  _21
REMARK                            x       y       z     vdW  Elec       q    Type
REMARK                         _______ _______ _______ _____ _____    ______ ____
ROOT
ATOM      1  C   UNL     1     -13.484   1.849 -22.454  0.00  0.00    +0.001 A 
ATOM      2  C   UNL     1     -14.553   2.672 -22.801  0.00  0.00    +0.000 A 
ATOM      3  C   UNL     1     -15.265   3.341 -21.805  0.00  0.00    +0.004 A 
ATOM      4  C   UNL     1     -14.906   3.201 -20.454  0.00  0.00    -0.036 A 
ATOM      5  C   UNL     1     -15.708   3.894 -19.381  0.00  0.00    +0.040 C 
ATOM      6  C   UNL     1     -14.899   4.151 -18.107  0.00  0.00    +0.043 C 
ATOM      7  C   UNL     1     -14.244   2.889 -17.594  0.00  0.00    +0.001 C 
ATOM      8  C   UNL     1     -14.376   2.412 -16.336  0.00  0.00    +0.015 C 
ATOM      9  C   UNL     1     -13.470   2.191 -18.652  0.00  0.00    +0.189 C 
ATOM     10  O   UNL     1     -12.477   1.539 -18.223  0.00  0.00    -0.287 OA
ATOM     11  C   UNL     1     -13.834   2.364 -20.094  0.00  0.00    +0.025 A 
ATOM     12  C   UNL     1     -13.131   1.698 -21.112  0.00  0.00    +0.012 A 
ENDROOT
BRANCH   8  13
ATOM     13  C   UNL     1     -15.076   2.988 -15.181  0.00  0.00    -0.024 A 
ATOM     14  C   UNL     1     -14.540   4.046 -14.435  0.00  0.00    +0.011 A 
ATOM     15  C   UNL     1     -15.160   4.471 -13.253  0.00  0.00    +0.046 A 
ATOM     16  C   UNL     1     -16.307   3.820 -12.804  0.00  0.00    +0.121 A 
ATOM     17  C   UNL     1     -16.876   2.797 -13.560  0.00  0.00    +0.046 A 
ATOM     18  C   UNL     1     -16.251   2.371 -14.735  0.00  0.00    +0.011 A 
BRANCH  16  19
ATOM     19  O   UNL     1     -16.916   4.148 -11.621  0.00  0.00    -0.492 OA
BRANCH  19  20
ATOM     20  C   UNL     1     -15.987   4.355 -10.532  0.00  0.00    +0.225 C 
ATOM     21  C   UNL     1     -16.052   3.242  -9.529  0.00  0.00    +0.048 C 
ENDBRANCH  19  20
ENDBRANCH  16  19
ENDBRANCH   8  13
TORSDOF 3
ENDMDL
MODEL 9
REMARK VINA RESULT:      -6.8     11.340     13.919
REMARK  Name = min_compound952.pdb
REMARK  4 active torsions:
REMARK  status: ('A' for Active; 'I' for Inactive)
REMARK    1  A    between atoms: _12  and  _19
REMARK    2  A    between atoms: _17  and  _18
REMARK    3  A    between atoms: _18  and  _20
REMARK    4  A    between atoms: _20  and  _21
REMARK                            x       y       z     vdW  Elec       q    Type
REMARK                         _______ _______ _______ _____ _____    ______ ____
ROOT
ATOM      1  C   UNL     1     -17.860   5.412 -10.005  0.00  0.00    +0.001 A 
ATOM      2  C   UNL     1     -17.134   4.528 -10.800  0.00  0.00    +0.000 A 
ATOM      3  C   UNL     1     -16.527   3.413 -10.221  0.00  0.00    +0.004 A 
ATOM      4  C   UNL     1     -16.651   3.167  -8.843  0.00  0.00    -0.036 A 
ATOM      5  C   UNL     1     -15.956   1.983  -8.219  0.00  0.00    +0.040 C 
ATOM      6  C   UNL     1     -16.633   1.507  -6.931  0.00  0.00    +0.043 C 
ATOM      7  C   UNL     1     -16.817   2.637  -5.943  0.00  0.00    +0.001 C 
ATOM      8  C   UNL     1     -16.390   2.613  -4.661  0.00  0.00    +0.015 C 
ATOM      9  C   UNL     1     -17.482   3.814  -6.559  0.00  0.00    +0.189 C 
ATOM     10  O   UNL     1     -18.175   4.497  -5.753  0.00  0.00    -0.287 OA
ATOM     11  C   UNL     1     -17.374   4.060  -8.031  0.00  0.00    +0.025 A 
ATOM     12  C   UNL     1     -17.976   5.178  -8.633  0.00  0.00    +0.012 A 
ENDROOT
BRANCH   8  13
ATOM     13  C   UNL     1     -15.746   1.532  -3.905  0.00  0.00    -0.024 A 
ATOM     14  C   UNL     1     -14.357   1.468  -3.732  0.00  0.00    +0.011 A 
ATOM     15  C   UNL     1     -13.764   0.347  -3.136  0.00  0.00    +0.046 A 
ATOM     16  C   UNL     1     -14.562  -0.722  -2.733  0.00  0.00    +0.121 A 
ATOM     17  C   UNL     1     -15.948  -0.650  -2.856  0.00  0.00    +0.046 A 
ATOM     18  C   UNL     1     -16.535   0.466  -3.457  0.00  0.00    +0.011 A 
BRANCH  16  19
ATOM     19  O   UNL     1     -14.031  -1.870  -2.207  0.00  0.00    -0.492 OA
BRANCH  19  20
ATOM     20  C   UNL     1     -14.645  -3.076  -2.717  0.00  0.00    +0.225 C 
ATOM     21  C   UNL     1     -14.024  -4.308  -2.128  0.00  0.00    +0.048 C 
ENDBRANCH  19  20
ENDBRANCH  16  19
ENDBRANCH   8  13
TORSDOF 3
ENDMDL
