MODEL 1
REMARK VINA RESULT:      -6.7      0.000      0.000
REMARK  Name = min_compound94.pdb
REMARK  4 active torsions:
REMARK  status: ('A' for Active; 'I' for Inactive)
REMARK    1  A    between atoms: _2  and  _10
REMARK    2  A    between atoms: _2  and  _11
REMARK    3  A    between atoms: _7  and  _13
REMARK    4  A    between atoms: _9  and  _12
REMARK                            x       y       z     vdW  Elec       q    Type
REMARK                         _______ _______ _______ _____ _____    ______ ____
ROOT
ATOM      1  N   UNL     1     -12.653   3.520 -15.961  0.00  0.00    -0.286 NA
ATOM      2  C   UNL     1     -13.780   2.698 -16.413  0.00  0.00    +0.056 C 
ATOM      3  C   UNL     1     -14.973   3.047 -15.511  0.00  0.00    +0.036 C 
ATOM      4  C   UNL     1     -14.125   3.085 -17.857  0.00  0.00    +0.036 C 
ATOM      5  C   UNL     1     -13.450   1.208 -16.252  0.00  0.00    +0.034 C 
ATOM      6  C   UNL     1     -12.217   0.826 -17.060  0.00  0.00    +0.002 C 
ATOM      7  C   UNL     1     -11.076   1.848 -16.921  0.00  0.00    +0.064 C 
ATOM      8  C   UNL     1      -9.902   1.068 -16.316  0.00  0.00    +0.123 C 
ATOM      9  C   UNL     1     -10.128  -0.355 -16.813  0.00  0.00    +0.032 C 
ATOM     10  C   UNL     1     -11.632  -0.533 -16.656  0.00  0.00    +0.007 C 
ATOM     11  C   UNL     1     -11.441   3.119 -16.166  0.00  0.00    +0.017 C 
ATOM     12  C   UNL     1     -10.300   4.011 -15.773  0.00  0.00    +0.060 C 
ENDROOT
BRANCH   8  13
ATOM     13  O   UNL     1      -9.951   1.084 -14.894  0.00  0.00    -0.391 OA
ATOM     14  H   UNL     1      -9.154   1.541 -14.573  0.00  0.00    +0.210 HD
ENDBRANCH   8  13
TORSDOF 1
ENDMDL
MODEL 2
REMARK VINA RESULT:      -6.5      2.384      4.195
REMARK  Name = min_compound94.pdb
REMARK  4 active torsions:
REMARK  status: ('A' for Active; 'I' for Inactive)
REMARK    1  A    between atoms: _2  and  _10
REMARK    2  A    between atoms: _2  and  _11
REMARK    3  A    between atoms: _7  and  _13
REMARK    4  A    between atoms: _9  and  _12
REMARK                            x       y       z     vdW  Elec       q    Type
REMARK                         _______ _______ _______ _____ _____    ______ ____
ROOT
ATOM      1  N   UNL     1     -11.738   0.456 -17.625  0.00  0.00    -0.286 NA
ATOM      2  C   UNL     1     -10.660   0.196 -16.666  0.00  0.00    +0.056 C 
ATOM      3  C   UNL     1     -11.063  -1.058 -15.876  0.00  0.00    +0.036 C 
ATOM      4  C   UNL     1      -9.371  -0.104 -17.443  0.00  0.00    +0.036 C 
ATOM      5  C   UNL     1     -10.516   1.375 -15.694  0.00  0.00    +0.034 C 
ATOM      6  C   UNL     1     -10.203   2.667 -16.437  0.00  0.00    +0.002 C 
ATOM      7  C   UNL     1     -11.070   2.855 -17.693  0.00  0.00    +0.064 C 
ATOM      8  C   UNL     1     -11.852   4.153 -17.457  0.00  0.00    +0.123 C 
ATOM      9  C   UNL     1     -10.930   4.964 -16.554  0.00  0.00    +0.032 C 
ATOM     10  C   UNL     1     -10.411   3.919 -15.576  0.00  0.00    +0.007 C 
ATOM     11  C   UNL     1     -11.936   1.658 -18.061  0.00  0.00    +0.017 C 
ATOM     12  C   UNL     1     -12.988   1.892 -19.104  0.00  0.00    +0.060 C 
ENDROOT
BRANCH   8  13
ATOM     13  O   UNL     1     -13.075   3.901 -16.776  0.00  0.00    -0.391 OA
ATOM     14  H   UNL     1     -13.017   4.311 -15.895  0.00  0.00    +0.210 HD
ENDBRANCH   8  13
TORSDOF 1
ENDMDL
MODEL 3
REMARK VINA RESULT:      -5.8      1.591      3.104
REMARK  Name = min_compound94.pdb
REMARK  4 active torsions:
REMARK  status: ('A' for Active; 'I' for Inactive)
REMARK    1  A    between atoms: _2  and  _10
REMARK    2  A    between atoms: _2  and  _11
REMARK    3  A    between atoms: _7  and  _13
REMARK    4  A    between atoms: _9  and  _12
REMARK                            x       y       z     vdW  Elec       q    Type
REMARK                         _______ _______ _______ _____ _____    ______ ____
ROOT
ATOM      1  N   UNL     1     -12.334   3.332 -16.591  0.00  0.00    -0.286 NA
ATOM      2  C   UNL     1     -10.988   3.881 -16.780  0.00  0.00    +0.056 C 
ATOM      3  C   UNL     1     -11.130   5.092 -17.714  0.00  0.00    +0.036 C 
ATOM      4  C   UNL     1     -10.457   4.365 -15.424  0.00  0.00    +0.036 C 
ATOM      5  C   UNL     1     -10.077   2.841 -17.446  0.00  0.00    +0.034 C 
ATOM      6  C   UNL     1      -9.971   1.579 -16.599  0.00  0.00    +0.002 C 
ATOM      7  C   UNL     1     -11.331   1.117 -16.049  0.00  0.00    +0.064 C 
ATOM      8  C   UNL     1     -11.549  -0.286 -16.628  0.00  0.00    +0.123 C 
ATOM      9  C   UNL     1     -10.133  -0.818 -16.812  0.00  0.00    +0.032 C 
ATOM     10  C   UNL     1      -9.388   0.388 -17.369  0.00  0.00    +0.007 C 
ATOM     11  C   UNL     1     -12.483   2.083 -16.291  0.00  0.00    +0.017 C 
ATOM     12  C   UNL     1     -13.861   1.557 -16.019  0.00  0.00    +0.060 C 
ENDROOT
BRANCH   8  13
ATOM     13  O   UNL     1     -12.197  -0.226 -17.893  0.00  0.00    -0.391 OA
ATOM     14  H   UNL     1     -13.147  -0.085 -17.736  0.00  0.00    +0.210 HD
ENDBRANCH   8  13
TORSDOF 1
ENDMDL
MODEL 4
REMARK VINA RESULT:      -5.7      1.918      3.916
REMARK  Name = min_compound94.pdb
REMARK  4 active torsions:
REMARK  status: ('A' for Active; 'I' for Inactive)
REMARK    1  A    between atoms: _2  and  _10
REMARK    2  A    between atoms: _2  and  _11
REMARK    3  A    between atoms: _7  and  _13
REMARK    4  A    between atoms: _9  and  _12
REMARK                            x       y       z     vdW  Elec       q    Type
REMARK                         _______ _______ _______ _____ _____    ______ ____
ROOT
ATOM      1  N   UNL     1      -9.943   2.216 -16.649  0.00  0.00    -0.286 NA
ATOM      2  C   UNL     1     -10.480   0.852 -16.599  0.00  0.00    +0.056 C 
ATOM      3  C   UNL     1      -9.705   0.032 -17.641  0.00  0.00    +0.036 C 
ATOM      4  C   UNL     1     -10.206   0.266 -15.208  0.00  0.00    +0.036 C 
ATOM      5  C   UNL     1     -11.969   0.852 -16.969  0.00  0.00    +0.034 C 
ATOM      6  C   UNL     1     -12.774   1.726 -16.016  0.00  0.00    +0.002 C 
ATOM      7  C   UNL     1     -12.091   3.073 -15.725  0.00  0.00    +0.064 C 
ATOM      8  C   UNL     1     -13.075   4.142 -16.216  0.00  0.00    +0.123 C 
ATOM      9  C   UNL     1     -14.435   3.474 -16.055  0.00  0.00    +0.032 C 
ATOM     10  C   UNL     1     -14.176   2.056 -16.544  0.00  0.00    +0.007 C 
ATOM     11  C   UNL     1     -10.682   3.212 -16.283  0.00  0.00    +0.017 C 
ATOM     12  C   UNL     1     -10.090   4.590 -16.262  0.00  0.00    +0.060 C 
ENDROOT
BRANCH   8  13
ATOM     13  O   UNL     1     -12.860   4.447 -17.589  0.00  0.00    -0.391 OA
ATOM     14  H   UNL     1     -12.378   3.702 -17.989  0.00  0.00    +0.210 HD
ENDBRANCH   8  13
TORSDOF 1
ENDMDL
MODEL 5
REMARK VINA RESULT:      -5.7      2.099      3.960
REMARK  Name = min_compound94.pdb
REMARK  4 active torsions:
REMARK  status: ('A' for Active; 'I' for Inactive)
REMARK    1  A    between atoms: _2  and  _10
REMARK    2  A    between atoms: _2  and  _11
REMARK    3  A    between atoms: _7  and  _13
REMARK    4  A    between atoms: _9  and  _12
REMARK                            x       y       z     vdW  Elec       q    Type
REMARK                         _______ _______ _______ _____ _____    ______ ____
ROOT
ATOM      1  N   UNL     1     -10.051   1.723 -16.341  0.00  0.00    -0.286 NA
ATOM      2  C   UNL     1     -10.464   0.500 -17.035  0.00  0.00    +0.056 C 
ATOM      3  C   UNL     1      -9.182  -0.179 -17.540  0.00  0.00    +0.036 C 
ATOM      4  C   UNL     1     -11.151  -0.432 -16.027  0.00  0.00    +0.036 C 
ATOM      5  C   UNL     1     -11.354   0.845 -18.237  0.00  0.00    +0.034 C 
ATOM      6  C   UNL     1     -12.602   1.600 -17.800  0.00  0.00    +0.002 C 
ATOM      7  C   UNL     1     -12.300   2.703 -16.772  0.00  0.00    +0.064 C 
ATOM      8  C   UNL     1     -12.747   4.012 -17.436  0.00  0.00    +0.123 C 
ATOM      9  C   UNL     1     -13.872   3.572 -18.365  0.00  0.00    +0.032 C 
ATOM     10  C   UNL     1     -13.329   2.282 -18.966  0.00  0.00    +0.007 C 
ATOM     11  C   UNL     1     -10.869   2.720 -16.252  0.00  0.00    +0.017 C 
ATOM     12  C   UNL     1     -10.460   3.931 -15.466  0.00  0.00    +0.060 C 
ENDROOT
BRANCH   8  13
ATOM     13  O   UNL     1     -11.697   4.584 -18.206  0.00  0.00    -0.391 OA
ATOM     14  H   UNL     1     -11.942   4.513 -19.145  0.00  0.00    +0.210 HD
ENDBRANCH   8  13
TORSDOF 1
ENDMDL
MODEL 6
REMARK VINA RESULT:      -5.4     11.198     12.507
REMARK  Name = min_compound94.pdb
REMARK  4 active torsions:
REMARK  status: ('A' for Active; 'I' for Inactive)
REMARK    1  A    between atoms: _2  and  _10
REMARK    2  A    between atoms: _2  and  _11
REMARK    3  A    between atoms: _7  and  _13
REMARK    4  A    between atoms: _9  and  _12
REMARK                            x       y       z     vdW  Elec       q    Type
REMARK                         _______ _______ _______ _____ _____    ______ ____
ROOT
ATOM      1  N   UNL     1     -15.672   1.589  -3.568  0.00  0.00    -0.286 NA
ATOM      2  C   UNL     1     -14.281   1.278  -3.915  0.00  0.00    +0.056 C 
ATOM      3  C   UNL     1     -13.461   2.547  -3.639  0.00  0.00    +0.036 C 
ATOM      4  C   UNL     1     -13.781   0.158  -2.993  0.00  0.00    +0.036 C 
ATOM      5  C   UNL     1     -14.171   0.925  -5.405  0.00  0.00    +0.034 C 
ATOM      6  C   UNL     1     -15.038  -0.278  -5.752  0.00  0.00    +0.002 C 
ATOM      7  C   UNL     1     -16.437  -0.204  -5.119  0.00  0.00    +0.064 C 
ATOM      8  C   UNL     1     -17.418  -0.202  -6.298  0.00  0.00    +0.123 C 
ATOM      9  C   UNL     1     -16.675  -0.979  -7.379  0.00  0.00    +0.032 C 
ATOM     10  C   UNL     1     -15.253  -0.446  -7.261  0.00  0.00    +0.007 C 
ATOM     11  C   UNL     1     -16.637   0.940  -4.134  0.00  0.00    +0.017 C 
ATOM     12  C   UNL     1     -18.048   1.212  -3.706  0.00  0.00    +0.060 C 
ENDROOT
BRANCH   8  13
ATOM     13  O   UNL     1     -17.668   1.121  -6.757  0.00  0.00    -0.391 OA
ATOM     14  H   UNL     1     -18.370   1.503  -6.201  0.00  0.00    +0.210 HD
ENDBRANCH   8  13
TORSDOF 1
ENDMDL
MODEL 7
REMARK VINA RESULT:      -5.2      1.593      3.279
REMARK  Name = min_compound94.pdb
REMARK  4 active torsions:
REMARK  status: ('A' for Active; 'I' for Inactive)
REMARK    1  A    between atoms: _2  and  _10
REMARK    2  A    between atoms: _2  and  _11
REMARK    3  A    between atoms: _7  and  _13
REMARK    4  A    between atoms: _9  and  _12
REMARK                            x       y       z     vdW  Elec       q    Type
REMARK                         _______ _______ _______ _____ _____    ______ ____
ROOT
ATOM      1  N   UNL     1     -13.609   1.844 -17.907  0.00  0.00    -0.286 NA
ATOM      2  C   UNL     1     -14.120   3.197 -18.150  0.00  0.00    +0.056 C 
ATOM      3  C   UNL     1     -14.694   3.205 -19.575  0.00  0.00    +0.036 C 
ATOM      4  C   UNL     1     -15.257   3.481 -17.159  0.00  0.00    +0.036 C 
ATOM      5  C   UNL     1     -12.979   4.220 -18.065  0.00  0.00    +0.034 C 
ATOM      6  C   UNL     1     -12.314   4.191 -16.695  0.00  0.00    +0.002 C 
ATOM      7  C   UNL     1     -12.055   2.762 -16.190  0.00  0.00    +0.064 C 
ATOM      8  C   UNL     1     -10.535   2.662 -16.012  0.00  0.00    +0.123 C 
ATOM      9  C   UNL     1     -10.120   4.095 -15.698  0.00  0.00    +0.032 C 
ATOM     10  C   UNL     1     -10.960   4.911 -16.671  0.00  0.00    +0.007 C 
ATOM     11  C   UNL     1     -12.662   1.659 -17.046  0.00  0.00    +0.017 C 
ATOM     12  C   UNL     1     -12.209   0.260 -16.749  0.00  0.00    +0.060 C 
ENDROOT
BRANCH   8  13
ATOM     13  O   UNL     1      -9.903   2.241 -17.215  0.00  0.00    -0.391 OA
ATOM     14  H   UNL     1      -9.176   2.861 -17.403  0.00  0.00    +0.210 HD
ENDBRANCH   8  13
TORSDOF 1
ENDMDL
MODEL 8
REMARK VINA RESULT:      -5.2      2.375      4.491
REMARK  Name = min_compound94.pdb
REMARK  4 active torsions:
REMARK  status: ('A' for Active; 'I' for Inactive)
REMARK    1  A    between atoms: _2  and  _10
REMARK    2  A    between atoms: _2  and  _11
REMARK    3  A    between atoms: _7  and  _13
REMARK    4  A    between atoms: _9  and  _12
REMARK                            x       y       z     vdW  Elec       q    Type
REMARK                         _______ _______ _______ _____ _____    ______ ____
ROOT
ATOM      1  N   UNL     1     -12.269   1.353 -18.471  0.00  0.00    -0.286 NA
ATOM      2  C   UNL     1     -11.483   1.187 -17.245  0.00  0.00    +0.056 C 
ATOM      3  C   UNL     1     -11.288  -0.324 -17.045  0.00  0.00    +0.036 C 
ATOM      4  C   UNL     1     -10.109   1.838 -17.448  0.00  0.00    +0.036 C 
ATOM      5  C   UNL     1     -12.246   1.755 -16.041  0.00  0.00    +0.034 C 
ATOM      6  C   UNL     1     -12.545   3.237 -16.228  0.00  0.00    +0.002 C 
ATOM      7  C   UNL     1     -13.055   3.567 -17.641  0.00  0.00    +0.064 C 
ATOM      8  C   UNL     1     -14.455   4.158 -17.441  0.00  0.00    +0.123 C 
ATOM      9  C   UNL     1     -14.377   4.797 -16.060  0.00  0.00    +0.032 C 
ATOM     10  C   UNL     1     -13.605   3.763 -15.252  0.00  0.00    +0.007 C 
ATOM     11  C   UNL     1     -12.996   2.411 -18.631  0.00  0.00    +0.017 C 
ATOM     12  C   UNL     1     -13.728   2.605 -19.926  0.00  0.00    +0.060 C 
ENDROOT
BRANCH   8  13
ATOM     13  O   UNL     1     -15.448   3.139 -17.433  0.00  0.00    -0.391 OA
ATOM     14  H   UNL     1     -15.196   2.482 -16.761  0.00  0.00    +0.210 HD
ENDBRANCH   8  13
TORSDOF 1
ENDMDL
MODEL 9
REMARK VINA RESULT:      -5.1     12.432     13.544
REMARK  Name = min_compound94.pdb
REMARK  4 active torsions:
REMARK  status: ('A' for Active; 'I' for Inactive)
REMARK    1  A    between atoms: _2  and  _10
REMARK    2  A    between atoms: _2  and  _11
REMARK    3  A    between atoms: _7  and  _13
REMARK    4  A    between atoms: _9  and  _12
REMARK                            x       y       z     vdW  Elec       q    Type
REMARK                         _______ _______ _______ _____ _____    ______ ____
ROOT
ATOM      1  N   UNL     1     -16.014   1.037  -4.933  0.00  0.00    -0.286 NA
ATOM      2  C   UNL     1     -14.577   0.790  -5.092  0.00  0.00    +0.056 C 
ATOM      3  C   UNL     1     -14.238   1.078  -6.562  0.00  0.00    +0.036 C 
ATOM      4  C   UNL     1     -13.806   1.777  -4.206  0.00  0.00    +0.036 C 
ATOM      5  C   UNL     1     -14.252  -0.677  -4.782  0.00  0.00    +0.034 C 
ATOM      6  C   UNL     1     -14.652  -1.042  -3.358  0.00  0.00    +0.002 C 
ATOM      7  C   UNL     1     -16.040  -0.502  -2.975  0.00  0.00    +0.064 C 
ATOM      8  C   UNL     1     -16.881  -1.741  -2.645  0.00  0.00    +0.123 C 
ATOM      9  C   UNL     1     -15.851  -2.747  -2.146  0.00  0.00    +0.032 C 
ATOM     10  C   UNL     1     -14.693  -2.556  -3.116  0.00  0.00    +0.007 C 
ATOM     11  C   UNL     1     -16.671   0.432  -3.998  0.00  0.00    +0.017 C 
ATOM     12  C   UNL     1     -18.121   0.759  -3.796  0.00  0.00    +0.060 C 
ENDROOT
BRANCH   8  13
ATOM     13  O   UNL     1     -17.517  -2.257  -3.809  0.00  0.00    -0.391 OA
ATOM     14  H   UNL     1     -18.170  -2.919  -3.524  0.00  0.00    +0.210 HD
ENDBRANCH   8  13
TORSDOF 1
ENDMDL
