MODEL 1
REMARK VINA RESULT:      -6.2      0.000      0.000
REMARK  Name = min_compound915.pdb
REMARK  4 active torsions:
REMARK  status: ('A' for Active; 'I' for Inactive)
REMARK    1  A    between atoms: _4  and  _6
REMARK    2  A    between atoms: _7  and  _18
REMARK    3  A    between atoms: _10  and  _11
REMARK    4  A    between atoms: _18  and  _19
REMARK                            x       y       z     vdW  Elec       q    Type
REMARK                         _______ _______ _______ _____ _____    ______ ____
ROOT
ATOM      1  C   UNL     1     -13.120   3.849 -19.464  0.00  0.00    +0.222 C 
ATOM      2  N   UNL     1     -12.910   2.598 -18.892  0.00  0.00    -0.227 N 
ATOM      3  N   UNL     1     -13.477   1.620 -19.656  0.00  0.00    -0.269 N 
ATOM      4  H   UNL     1     -13.627   0.677 -19.415  0.00  0.00    +0.170 HD
ATOM      5  C   UNL     1     -13.781   2.226 -20.801  0.00  0.00    +0.092 C 
ATOM      6  C   UNL     1     -13.562   3.610 -20.751  0.00  0.00    +0.001 C 
ENDROOT
BRANCH   2   7
ATOM      7  C   UNL     1     -12.113   2.195 -17.776  0.00  0.00    +0.052 A 
ATOM      8  C   UNL     1     -11.391   0.993 -17.857  0.00  0.00    +0.044 A 
ATOM      9  C   UNL     1     -10.588   0.588 -16.791  0.00  0.00    +0.043 A 
ATOM     10 CL   UNL     1      -9.719  -0.895 -16.890  0.00  0.00    -0.083 Cl
ATOM     11  C   UNL     1     -10.481   1.374 -15.647  0.00  0.00    +0.020 A 
ATOM     12  C   UNL     1     -11.170   2.583 -15.572  0.00  0.00    +0.003 A 
ATOM     13  C   UNL     1     -11.977   3.000 -16.637  0.00  0.00    +0.025 A 
ENDBRANCH   2   7
BRANCH   1  17
ATOM     14  C   UNL     1     -12.165   7.069 -18.139  0.00  0.00    +0.019 A 
ATOM     15  C   UNL     1     -13.445   6.908 -17.574  0.00  0.00    +0.019 A 
ATOM     16  C   UNL     1     -13.931   5.697 -18.013  0.00  0.00    +0.088 A 
ATOM     17  N   UNL     1     -12.986   5.079 -18.815  0.00  0.00    -0.330 N 
ATOM     18  C   UNL     1     -11.918   5.951 -18.905  0.00  0.00    +0.088 A 
ENDBRANCH   1  17
BRANCH   6  19
ATOM     19  C   UNL     1     -13.901   4.536 -21.778  0.00  0.00    +0.114 C 
BRANCH  19  20
ATOM     20  N   UNL     1     -14.259   5.485 -22.819  0.00  0.00    -0.326 NA
ATOM     21  H   UNL     1     -14.902   5.042 -23.477  0.00  0.00    +0.119 HD
ATOM     22  H   UNL     1     -14.710   6.297 -22.398  0.00  0.00    +0.119 HD
ENDBRANCH  19  20
ENDBRANCH   6  19
TORSDOF 4
ENDMDL
MODEL 2
REMARK VINA RESULT:      -6.2      3.856      5.206
REMARK  Name = min_compound915.pdb
REMARK  4 active torsions:
REMARK  status: ('A' for Active; 'I' for Inactive)
REMARK    1  A    between atoms: _4  and  _6
REMARK    2  A    between atoms: _7  and  _18
REMARK    3  A    between atoms: _10  and  _11
REMARK    4  A    between atoms: _18  and  _19
REMARK                            x       y       z     vdW  Elec       q    Type
REMARK                         _______ _______ _______ _____ _____    ______ ____
ROOT
ATOM      1  C   UNL     1     -14.050   2.801 -17.349  0.00  0.00    +0.222 C 
ATOM      2  N   UNL     1     -15.064   3.494 -16.696  0.00  0.00    -0.227 N 
ATOM      3  N   UNL     1     -15.797   4.224 -17.585  0.00  0.00    -0.269 N 
ATOM      4  H   UNL     1     -16.458   4.927 -17.389  0.00  0.00    +0.170 HD
ATOM      5  C   UNL     1     -15.418   3.774 -18.778  0.00  0.00    +0.092 C 
ATOM      6  C   UNL     1     -14.348   2.871 -18.697  0.00  0.00    +0.001 C 
ENDROOT
BRANCH   2   7
ATOM      7  C   UNL     1     -15.519   3.440 -15.341  0.00  0.00    +0.052 A 
ATOM      8  C   UNL     1     -14.919   4.284 -14.391  0.00  0.00    +0.044 A 
ATOM      9  C   UNL     1     -15.359   4.268 -13.068  0.00  0.00    +0.043 A 
ATOM     10 CL   UNL     1     -14.609   5.292 -11.905  0.00  0.00    -0.083 Cl
ATOM     11  C   UNL     1     -16.401   3.431 -12.678  0.00  0.00    +0.020 A 
ATOM     12  C   UNL     1     -17.021   2.614 -13.622  0.00  0.00    +0.003 A 
ATOM     13  C   UNL     1     -16.590   2.624 -14.953  0.00  0.00    +0.025 A 
ENDBRANCH   2   7
BRANCH   1  17
ATOM     14  C   UNL     1     -11.367   0.742 -16.086  0.00  0.00    +0.019 A 
ATOM     15  C   UNL     1     -10.971   2.015 -15.636  0.00  0.00    +0.019 A 
ATOM     16  C   UNL     1     -11.926   2.910 -16.064  0.00  0.00    +0.088 A 
ATOM     17  N   UNL     1     -12.924   2.235 -16.746  0.00  0.00    -0.330 N 
ATOM     18  C   UNL     1     -12.549   0.906 -16.776  0.00  0.00    +0.088 A 
ENDBRANCH   1  17
BRANCH   6  19
ATOM     19  C   UNL     1     -13.655   2.311 -19.808  0.00  0.00    +0.114 C 
BRANCH  19  20
ATOM     20  N   UNL     1     -12.934   1.740 -20.933  0.00  0.00    -0.326 NA
ATOM     21  H   UNL     1     -12.111   1.242 -20.592  0.00  0.00    +0.119 HD
ATOM     22  H   UNL     1     -13.542   1.090 -21.431  0.00  0.00    +0.119 HD
ENDBRANCH  19  20
ENDBRANCH   6  19
TORSDOF 4
ENDMDL
MODEL 3
REMARK VINA RESULT:      -6.2      3.103      3.781
REMARK  Name = min_compound915.pdb
REMARK  4 active torsions:
REMARK  status: ('A' for Active; 'I' for Inactive)
REMARK    1  A    between atoms: _4  and  _6
REMARK    2  A    between atoms: _7  and  _18
REMARK    3  A    between atoms: _10  and  _11
REMARK    4  A    between atoms: _18  and  _19
REMARK                            x       y       z     vdW  Elec       q    Type
REMARK                         _______ _______ _______ _____ _____    ______ ____
ROOT
ATOM      1  C   UNL     1     -15.178   3.349 -16.974  0.00  0.00    +0.222 C 
ATOM      2  N   UNL     1     -14.017   2.767 -17.475  0.00  0.00    -0.227 N 
ATOM      3  N   UNL     1     -14.064   2.698 -18.837  0.00  0.00    -0.269 N 
ATOM      4  H   UNL     1     -13.468   2.193 -19.436  0.00  0.00    +0.170 HD
ATOM      5  C   UNL     1     -15.096   3.467 -19.174  0.00  0.00    +0.092 C 
ATOM      6  C   UNL     1     -15.817   3.919 -18.059  0.00  0.00    +0.001 C 
ENDROOT
BRANCH   2   7
ATOM      7  C   UNL     1     -12.799   2.392 -16.829  0.00  0.00    +0.052 A 
ATOM      8  C   UNL     1     -12.382   1.051 -16.894  0.00  0.00    +0.044 A 
ATOM      9  C   UNL     1     -11.185   0.663 -16.292  0.00  0.00    +0.043 A 
ATOM     10 CL   UNL     1     -10.688  -0.983 -16.360  0.00  0.00    -0.083 Cl
ATOM     11  C   UNL     1     -10.387   1.597 -15.636  0.00  0.00    +0.020 A 
ATOM     12  C   UNL     1     -10.780   2.934 -15.594  0.00  0.00    +0.003 A 
ATOM     13  C   UNL     1     -11.977   3.334 -16.197  0.00  0.00    +0.025 A 
ENDBRANCH   2   7
BRANCH   1  17
ATOM     14  C   UNL     1     -15.982   3.774 -13.480  0.00  0.00    +0.019 A 
ATOM     15  C   UNL     1     -16.720   2.617 -13.792  0.00  0.00    +0.019 A 
ATOM     16  C   UNL     1     -16.499   2.344 -15.124  0.00  0.00    +0.088 A 
ATOM     17  N   UNL     1     -15.624   3.279 -15.652  0.00  0.00    -0.330 N 
ATOM     18  C   UNL     1     -15.340   4.168 -14.634  0.00  0.00    +0.088 A 
ENDBRANCH   1  17
BRANCH   6  19
ATOM     19  C   UNL     1     -17.032   4.661 -18.106  0.00  0.00    +0.114 C 
BRANCH  19  20
ATOM     20  N   UNL     1     -18.279   5.405 -18.151  0.00  0.00    -0.326 NA
ATOM     21  H   UNL     1     -18.758   5.320 -17.255  0.00  0.00    +0.119 HD
ATOM     22  H   UNL     1     -18.081   6.388 -18.339  0.00  0.00    +0.119 HD
ENDBRANCH  19  20
ENDBRANCH   6  19
TORSDOF 4
ENDMDL
MODEL 4
REMARK VINA RESULT:      -6.1     11.004     13.136
REMARK  Name = min_compound915.pdb
REMARK  4 active torsions:
REMARK  status: ('A' for Active; 'I' for Inactive)
REMARK    1  A    between atoms: _4  and  _6
REMARK    2  A    between atoms: _7  and  _18
REMARK    3  A    between atoms: _10  and  _11
REMARK    4  A    between atoms: _18  and  _19
REMARK                            x       y       z     vdW  Elec       q    Type
REMARK                         _______ _______ _______ _____ _____    ______ ____
ROOT
ATOM      1  C   UNL     1     -17.423   0.936  -6.996  0.00  0.00    +0.222 C 
ATOM      2  N   UNL     1     -17.898   1.835  -7.945  0.00  0.00    -0.227 N 
ATOM      3  N   UNL     1     -19.100   1.419  -8.440  0.00  0.00    -0.269 N 
ATOM      4  H   UNL     1     -19.579   1.764  -9.228  0.00  0.00    +0.170 HD
ATOM      5  C   UNL     1     -19.479   0.444  -7.618  0.00  0.00    +0.092 C 
ATOM      6  C   UNL     1     -18.488   0.111  -6.685  0.00  0.00    +0.001 C 
ENDROOT
BRANCH   2   7
ATOM      7  C   UNL     1     -17.421   3.122  -8.343  0.00  0.00    +0.052 A 
ATOM      8  C   UNL     1     -16.582   3.215  -9.467  0.00  0.00    +0.044 A 
ATOM      9  C   UNL     1     -16.121   4.461  -9.891  0.00  0.00    +0.043 A 
ATOM     10 CL   UNL     1     -15.080   4.568 -11.258  0.00  0.00    -0.083 Cl
ATOM     11  C   UNL     1     -16.496   5.621  -9.219  0.00  0.00    +0.020 A 
ATOM     12  C   UNL     1     -17.352   5.539  -8.122  0.00  0.00    +0.003 A 
ATOM     13  C   UNL     1     -17.823   4.294  -7.690  0.00  0.00    +0.025 A 
ENDBRANCH   2   7
BRANCH   1  17
ATOM     14  C   UNL     1     -14.235   1.182  -5.319  0.00  0.00    +0.019 A 
ATOM     15  C   UNL     1     -13.965   0.185  -6.276  0.00  0.00    +0.019 A 
ATOM     16  C   UNL     1     -15.125  -0.011  -6.993  0.00  0.00    +0.088 A 
ATOM     17  N   UNL     1     -16.107   0.851  -6.534  0.00  0.00    -0.330 N 
ATOM     18  C   UNL     1     -15.550   1.557  -5.485  0.00  0.00    +0.088 A 
ENDBRANCH   1  17
BRANCH   6  19
ATOM     19  C   UNL     1     -18.558  -0.965  -5.755  0.00  0.00    +0.114 C 
BRANCH  19  20
ATOM     20  N   UNL     1     -18.625  -2.073  -4.817  0.00  0.00    -0.326 NA
ATOM     21  H   UNL     1     -19.399  -1.925  -4.169  0.00  0.00    +0.119 HD
ATOM     22  H   UNL     1     -18.772  -2.943  -5.328  0.00  0.00    +0.119 HD
ENDBRANCH  19  20
ENDBRANCH   6  19
TORSDOF 4
ENDMDL
MODEL 5
REMARK VINA RESULT:      -6.1      3.137      4.626
REMARK  Name = min_compound915.pdb
REMARK  4 active torsions:
REMARK  status: ('A' for Active; 'I' for Inactive)
REMARK    1  A    between atoms: _4  and  _6
REMARK    2  A    between atoms: _7  and  _18
REMARK    3  A    between atoms: _10  and  _11
REMARK    4  A    between atoms: _18  and  _19
REMARK                            x       y       z     vdW  Elec       q    Type
REMARK                         _______ _______ _______ _____ _____    ______ ____
ROOT
ATOM      1  C   UNL     1     -14.622   5.019 -16.084  0.00  0.00    +0.222 C 
ATOM      2  N   UNL     1     -13.398   4.713 -16.669  0.00  0.00    -0.227 N 
ATOM      3  N   UNL     1     -13.042   5.676 -17.568  0.00  0.00    -0.269 N 
ATOM      4  H   UNL     1     -12.321   5.638 -18.238  0.00  0.00    +0.170 HD
ATOM      5  C   UNL     1     -13.886   6.677 -17.335  0.00  0.00    +0.092 C 
ATOM      6  C   UNL     1     -14.881   6.337 -16.407  0.00  0.00    +0.001 C 
ENDROOT
BRANCH   2   7
ATOM      7  C   UNL     1     -12.447   3.686 -16.379  0.00  0.00    +0.052 A 
ATOM      8  C   UNL     1     -12.807   2.346 -16.603  0.00  0.00    +0.044 A 
ATOM      9  C   UNL     1     -11.891   1.326 -16.350  0.00  0.00    +0.043 A 
ATOM     10 CL   UNL     1     -12.344  -0.315 -16.609  0.00  0.00    -0.083 Cl
ATOM     11  C   UNL     1     -10.611   1.622 -15.890  0.00  0.00    +0.020 A 
ATOM     12  C   UNL     1     -10.236   2.951 -15.695  0.00  0.00    +0.003 A 
ATOM     13  C   UNL     1     -11.147   3.982 -15.949  0.00  0.00    +0.025 A 
ENDBRANCH   2   7
BRANCH   1  17
ATOM     14  C   UNL     1     -16.455   2.997 -13.719  0.00  0.00    +0.019 A 
ATOM     15  C   UNL     1     -17.031   2.585 -14.936  0.00  0.00    +0.019 A 
ATOM     16  C   UNL     1     -16.410   3.298 -15.939  0.00  0.00    +0.088 A 
ATOM     17  N   UNL     1     -15.445   4.127 -15.392  0.00  0.00    -0.330 N 
ATOM     18  C   UNL     1     -15.506   3.950 -14.022  0.00  0.00    +0.088 A 
ENDBRANCH   1  17
BRANCH   6  19
ATOM     19  C   UNL     1     -15.986   7.159 -16.044  0.00  0.00    +0.114 C 
BRANCH  19  20
ATOM     20  N   UNL     1     -17.120   7.985 -15.666  0.00  0.00    -0.326 NA
ATOM     21  H   UNL     1     -17.987   7.487 -15.871  0.00  0.00    +0.119 HD
ATOM     22  H   UNL     1     -17.074   8.189 -14.668  0.00  0.00    +0.119 HD
ENDBRANCH  19  20
ENDBRANCH   6  19
TORSDOF 4
ENDMDL
MODEL 6
REMARK VINA RESULT:      -6.1      2.330      3.348
REMARK  Name = min_compound915.pdb
REMARK  4 active torsions:
REMARK  status: ('A' for Active; 'I' for Inactive)
REMARK    1  A    between atoms: _4  and  _6
REMARK    2  A    between atoms: _7  and  _18
REMARK    3  A    between atoms: _10  and  _11
REMARK    4  A    between atoms: _18  and  _19
REMARK                            x       y       z     vdW  Elec       q    Type
REMARK                         _______ _______ _______ _____ _____    ______ ____
ROOT
ATOM      1  C   UNL     1     -14.089   5.147 -16.925  0.00  0.00    +0.222 C 
ATOM      2  N   UNL     1     -13.632   4.234 -15.980  0.00  0.00    -0.227 N 
ATOM      3  N   UNL     1     -14.516   4.132 -14.945  0.00  0.00    -0.269 N 
ATOM      4  H   UNL     1     -14.375   3.697 -14.073  0.00  0.00    +0.170 HD
ATOM      5  C   UNL     1     -15.609   4.753 -15.379  0.00  0.00    +0.092 C 
ATOM      6  C   UNL     1     -15.414   5.387 -16.614  0.00  0.00    +0.001 C 
ENDROOT
BRANCH   2   7
ATOM      7  C   UNL     1     -12.522   3.333 -16.002  0.00  0.00    +0.052 A 
ATOM      8  C   UNL     1     -12.761   1.969 -16.241  0.00  0.00    +0.044 A 
ATOM      9  C   UNL     1     -11.694   1.073 -16.290  0.00  0.00    +0.043 A 
ATOM     10 CL   UNL     1     -11.995  -0.600 -16.566  0.00  0.00    -0.083 Cl
ATOM     11  C   UNL     1     -10.386   1.518 -16.119  0.00  0.00    +0.020 A 
ATOM     12  C   UNL     1     -10.140   2.875 -15.913  0.00  0.00    +0.003 A 
ATOM     13  C   UNL     1     -11.203   3.783 -15.865  0.00  0.00    +0.025 A 
ENDBRANCH   2   7
BRANCH   1  17
ATOM     14  C   UNL     1     -11.920   7.159 -18.994  0.00  0.00    +0.019 A 
ATOM     15  C   UNL     1     -12.270   6.128 -19.887  0.00  0.00    +0.019 A 
ATOM     16  C   UNL     1     -13.109   5.273 -19.206  0.00  0.00    +0.088 A 
ATOM     17  N   UNL     1     -13.318   5.749 -17.922  0.00  0.00    -0.330 N 
ATOM     18  C   UNL     1     -12.555   6.895 -17.801  0.00  0.00    +0.088 A 
ENDBRANCH   1  17
BRANCH   6  19
ATOM     19  C   UNL     1     -16.362   6.222 -17.272  0.00  0.00    +0.114 C 
BRANCH  19  20
ATOM     20  N   UNL     1     -17.340   7.068 -17.935  0.00  0.00    -0.326 NA
ATOM     21  H   UNL     1     -18.261   6.633 -17.875  0.00  0.00    +0.119 HD
ATOM     22  H   UNL     1     -17.364   7.980 -17.481  0.00  0.00    +0.119 HD
ENDBRANCH  19  20
ENDBRANCH   6  19
TORSDOF 4
ENDMDL
MODEL 7
REMARK VINA RESULT:      -6.1     13.915     15.774
REMARK  Name = min_compound915.pdb
REMARK  4 active torsions:
REMARK  status: ('A' for Active; 'I' for Inactive)
REMARK    1  A    between atoms: _4  and  _6
REMARK    2  A    between atoms: _7  and  _18
REMARK    3  A    between atoms: _10  and  _11
REMARK    4  A    between atoms: _18  and  _19
REMARK                            x       y       z     vdW  Elec       q    Type
REMARK                         _______ _______ _______ _____ _____    ______ ____
ROOT
ATOM      1  C   UNL     1     -16.144  -0.121  -4.703  0.00  0.00    +0.222 C 
ATOM      2  N   UNL     1     -16.707  -1.133  -3.932  0.00  0.00    -0.227 N 
ATOM      3  N   UNL     1     -17.848  -1.602  -4.516  0.00  0.00    -0.269 N 
ATOM      4  H   UNL     1     -18.531  -2.190  -4.119  0.00  0.00    +0.170 HD
ATOM      5  C   UNL     1     -17.830  -1.087  -5.743  0.00  0.00    +0.092 C 
ATOM      6  C   UNL     1     -16.783  -0.174  -5.928  0.00  0.00    +0.001 C 
ENDROOT
BRANCH   2   7
ATOM      7  C   UNL     1     -16.221  -1.814  -2.773  0.00  0.00    +0.052 A 
ATOM      8  C   UNL     1     -15.230  -2.797  -2.931  0.00  0.00    +0.044 A 
ATOM      9  C   UNL     1     -14.722  -3.461  -1.814  0.00  0.00    +0.043 A 
ATOM     10 CL   UNL     1     -13.520  -4.677  -2.016  0.00  0.00    -0.083 Cl
ATOM     11  C   UNL     1     -15.178  -3.147  -0.537  0.00  0.00    +0.020 A 
ATOM     12  C   UNL     1     -16.139  -2.151  -0.371  0.00  0.00    +0.003 A 
ATOM     13  C   UNL     1     -16.653  -1.477  -1.484  0.00  0.00    +0.025 A 
ENDBRANCH   2   7
BRANCH   1  17
ATOM     14  C   UNL     1     -14.212   2.726  -3.608  0.00  0.00    +0.019 A 
ATOM     15  C   UNL     1     -13.258   1.695  -3.513  0.00  0.00    +0.019 A 
ATOM     16  C   UNL     1     -13.881   0.531  -3.907  0.00  0.00    +0.088 A 
ATOM     17  N   UNL     1     -15.189   0.803  -4.271  0.00  0.00    -0.330 N 
ATOM     18  C   UNL     1     -15.384   2.154  -4.053  0.00  0.00    +0.088 A 
ENDBRANCH   1  17
BRANCH   6  19
ATOM     19  C   UNL     1     -16.576   0.620  -7.092  0.00  0.00    +0.114 C 
BRANCH  19  20
ATOM     20  N   UNL     1     -16.364   1.443  -8.271  0.00  0.00    -0.326 NA
ATOM     21  H   UNL     1     -15.849   2.284  -8.011  0.00  0.00    +0.119 HD
ATOM     22  H   UNL     1     -15.830   0.916  -8.961  0.00  0.00    +0.119 HD
ENDBRANCH  19  20
ENDBRANCH   6  19
TORSDOF 4
ENDMDL
MODEL 8
REMARK VINA RESULT:      -5.9      4.225      5.712
REMARK  Name = min_compound915.pdb
REMARK  4 active torsions:
REMARK  status: ('A' for Active; 'I' for Inactive)
REMARK    1  A    between atoms: _4  and  _6
REMARK    2  A    between atoms: _7  and  _18
REMARK    3  A    between atoms: _10  and  _11
REMARK    4  A    between atoms: _18  and  _19
REMARK                            x       y       z     vdW  Elec       q    Type
REMARK                         _______ _______ _______ _____ _____    ______ ____
ROOT
ATOM      1  C   UNL     1     -13.780   4.604 -16.391  0.00  0.00    +0.222 C 
ATOM      2  N   UNL     1     -14.740   5.041 -15.484  0.00  0.00    -0.227 N 
ATOM      3  N   UNL     1     -15.125   6.318 -15.771  0.00  0.00    -0.269 N 
ATOM      4  H   UNL     1     -15.656   6.929 -15.210  0.00  0.00    +0.170 HD
ATOM      5  C   UNL     1     -14.622   6.553 -16.981  0.00  0.00    +0.092 C 
ATOM      6  C   UNL     1     -13.793   5.515 -17.429  0.00  0.00    +0.001 C 
ENDROOT
BRANCH   2   7
ATOM      7  C   UNL     1     -15.447   4.346 -14.454  0.00  0.00    +0.052 A 
ATOM      8  C   UNL     1     -15.272   4.751 -13.120  0.00  0.00    +0.044 A 
ATOM      9  C   UNL     1     -15.967   4.104 -12.098  0.00  0.00    +0.043 A 
ATOM     10 CL   UNL     1     -15.736   4.594 -10.464  0.00  0.00    -0.083 Cl
ATOM     11  C   UNL     1     -16.849   3.067 -12.388  0.00  0.00    +0.020 A 
ATOM     12  C   UNL     1     -17.050   2.681 -13.712  0.00  0.00    +0.003 A 
ATOM     13  C   UNL     1     -16.360   3.324 -14.745  0.00  0.00    +0.025 A 
ENDBRANCH   2   7
BRANCH   1  17
ATOM     14  C   UNL     1     -12.074   1.423 -16.299  0.00  0.00    +0.019 A 
ATOM     15  C   UNL     1     -11.121   2.263 -15.692  0.00  0.00    +0.019 A 
ATOM     16  C   UNL     1     -11.657   3.531 -15.668  0.00  0.00    +0.088 A 
ATOM     17  N   UNL     1     -12.928   3.510 -16.218  0.00  0.00    -0.330 N 
ATOM     18  C   UNL     1     -13.156   2.210 -16.628  0.00  0.00    +0.088 A 
ENDBRANCH   1  17
BRANCH   6  19
ATOM     19  C   UNL     1     -13.026   5.532 -18.629  0.00  0.00    +0.114 C 
BRANCH  19  20
ATOM     20  N   UNL     1     -12.242   5.564 -19.853  0.00  0.00    -0.326 NA
ATOM     21  H   UNL     1     -11.297   5.886 -19.642  0.00  0.00    +0.119 HD
ATOM     22  H   UNL     1     -12.202   4.628 -20.255  0.00  0.00    +0.119 HD
ENDBRANCH  19  20
ENDBRANCH   6  19
TORSDOF 4
ENDMDL
MODEL 9
REMARK VINA RESULT:      -5.9      3.696      6.412
REMARK  Name = min_compound915.pdb
REMARK  4 active torsions:
REMARK  status: ('A' for Active; 'I' for Inactive)
REMARK    1  A    between atoms: _4  and  _6
REMARK    2  A    between atoms: _7  and  _18
REMARK    3  A    between atoms: _10  and  _11
REMARK    4  A    between atoms: _18  and  _19
REMARK                            x       y       z     vdW  Elec       q    Type
REMARK                         _______ _______ _______ _____ _____    ______ ____
ROOT
ATOM      1  C   UNL     1     -12.441   3.953 -16.329  0.00  0.00    +0.222 C 
ATOM      2  N   UNL     1     -12.345   5.148 -17.035  0.00  0.00    -0.227 N 
ATOM      3  N   UNL     1     -11.057   5.597 -17.045  0.00  0.00    -0.269 N 
ATOM      4  H   UNL     1     -10.730   6.485 -17.321  0.00  0.00    +0.170 HD
ATOM      5  C   UNL     1     -10.342   4.567 -16.601  0.00  0.00    +0.092 C 
ATOM      6  C   UNL     1     -11.144   3.506 -16.159  0.00  0.00    +0.001 C 
ENDROOT
BRANCH   2   7
ATOM      7  C   UNL     1     -13.305   5.852 -17.826  0.00  0.00    +0.052 A 
ATOM      8  C   UNL     1     -13.924   6.992 -17.286  0.00  0.00    +0.044 A 
ATOM      9  C   UNL     1     -14.847   7.711 -18.045  0.00  0.00    +0.043 A 
ATOM     10 CL   UNL     1     -15.615   9.096 -17.371  0.00  0.00    -0.083 Cl
ATOM     11  C   UNL     1     -15.152   7.319 -19.346  0.00  0.00    +0.020 A 
ATOM     12  C   UNL     1     -14.519   6.207 -19.899  0.00  0.00    +0.003 A 
ATOM     13  C   UNL     1     -13.589   5.481 -19.147  0.00  0.00    +0.025 A 
ENDBRANCH   2   7
BRANCH   1  17
ATOM     14  C   UNL     1     -15.494   3.060 -14.621  0.00  0.00    +0.019 A 
ATOM     15  C   UNL     1     -15.403   2.030 -15.577  0.00  0.00    +0.019 A 
ATOM     16  C   UNL     1     -14.261   2.260 -16.311  0.00  0.00    +0.088 A 
ATOM     17  N   UNL     1     -13.617   3.388 -15.830  0.00  0.00    -0.330 N 
ATOM     18  C   UNL     1     -14.405   3.883 -14.809  0.00  0.00    +0.088 A 
ENDBRANCH   1  17
BRANCH   6  19
ATOM     19  C   UNL     1     -10.671   2.321 -15.527  0.00  0.00    +0.114 C 
BRANCH  19  20
ATOM     20  N   UNL     1     -10.198   1.103 -14.890  0.00  0.00    -0.326 NA
ATOM     21  H   UNL     1      -9.416   1.324 -14.273  0.00  0.00    +0.119 HD
ATOM     22  H   UNL     1     -10.954   0.689 -14.346  0.00  0.00    +0.119 HD
ENDBRANCH  19  20
ENDBRANCH   6  19
TORSDOF 4
ENDMDL
