MODEL 1
REMARK VINA RESULT:      -7.4      0.000      0.000
REMARK  Name = min_compound970.pdb
REMARK  2 active torsions:
REMARK  status: ('A' for Active; 'I' for Inactive)
REMARK    1  A    between atoms: _2  and  _17
REMARK    2  A    between atoms: _11  and  _12
REMARK                            x       y       z     vdW  Elec       q    Type
REMARK                         _______ _______ _______ _____ _____    ______ ____
ROOT
ATOM      1  C   UNL     1     -12.965   1.947 -19.141  0.00  0.00    +0.098 A 
ATOM      2  C   UNL     1     -12.380   2.074 -17.928  0.00  0.00    +0.053 A 
ATOM      3  N   UNL     1     -12.624   3.216 -17.163  0.00  0.00    -0.339 N 
ATOM      4  H   UNL     1     -12.225   3.248 -16.232  0.00  0.00    +0.167 HD
ATOM      5  C   UNL     1     -13.414   4.224 -17.600  0.00  0.00    +0.139 A 
ATOM      6  C   UNL     1     -13.790   5.435 -17.084  0.00  0.00    +0.079 A 
ATOM      7  C   UNL     1     -14.644   5.992 -18.068  0.00  0.00    +0.130 A 
ATOM      8  N   UNL     1     -14.795   5.181 -19.125  0.00  0.00    -0.159 NA
ATOM      9  N   UNL     1     -14.026   4.104 -18.830  0.00  0.00    -0.179 N 
ATOM     10  C   UNL     1     -13.874   2.999 -19.675  0.00  0.00    +0.275 A 
ATOM     11  O   UNL     1     -14.439   2.912 -20.758  0.00  0.00    -0.266 OA
ENDROOT
BRANCH   2  12
ATOM     12  C   UNL     1     -11.460   1.014 -17.383  0.00  0.00    -0.001 A 
ATOM     13  C   UNL     1     -11.941  -0.070 -16.620  0.00  0.00    +0.010 A 
ATOM     14  C   UNL     1     -11.087  -1.060 -16.117  0.00  0.00    +0.001 A 
ATOM     15  C   UNL     1      -9.721  -0.990 -16.350  0.00  0.00    +0.000 A 
ATOM     16  C   UNL     1      -9.212   0.067 -17.093  0.00  0.00    +0.001 A 
ATOM     17  C   UNL     1     -10.070   1.048 -17.608  0.00  0.00    +0.010 A 
ENDBRANCH   2  12
BRANCH   7  18
ATOM     18  C   UNL     1     -15.327   7.322 -17.994  0.00  0.00    +0.155 A 
ATOM     19  C   UNL     1     -15.089   8.324 -17.070  0.00  0.00    +0.051 A 
ATOM     20  C   UNL     1     -15.963   9.395 -17.387  0.00  0.00    +0.042 A 
ATOM     21  C   UNL     1     -16.683   8.986 -18.482  0.00  0.00    +0.196 A 
ATOM     22  O   UNL     1     -16.305   7.739 -18.858  0.00  0.00    -0.461 OA
ENDBRANCH   7  18
TORSDOF 2
ENDMDL
MODEL 2
REMARK VINA RESULT:      -7.3      8.202      8.937
REMARK  Name = min_compound970.pdb
REMARK  2 active torsions:
REMARK  status: ('A' for Active; 'I' for Inactive)
REMARK    1  A    between atoms: _2  and  _17
REMARK    2  A    between atoms: _11  and  _12
REMARK                            x       y       z     vdW  Elec       q    Type
REMARK                         _______ _______ _______ _____ _____    ______ ____
ROOT
ATOM      1  C   UNL     1     -17.736   2.213  -8.929  0.00  0.00    +0.098 A 
ATOM      2  C   UNL     1     -16.397   2.168  -8.748  0.00  0.00    +0.053 A 
ATOM      3  N   UNL     1     -15.578   3.054  -9.450  0.00  0.00    -0.339 N 
ATOM      4  H   UNL     1     -14.586   3.039  -9.241  0.00  0.00    +0.167 HD
ATOM      5  C   UNL     1     -16.074   3.954 -10.330  0.00  0.00    +0.139 A 
ATOM      6  C   UNL     1     -15.514   4.894 -11.153  0.00  0.00    +0.079 A 
ATOM      7  C   UNL     1     -16.617   5.498 -11.807  0.00  0.00    +0.130 A 
ATOM      8  N   UNL     1     -17.787   4.974 -11.415  0.00  0.00    -0.159 NA
ATOM      9  N   UNL     1     -17.439   4.019 -10.517  0.00  0.00    -0.179 N 
ATOM     10  C   UNL     1     -18.359   3.198  -9.856  0.00  0.00    +0.275 A 
ATOM     11  O   UNL     1     -19.568   3.284 -10.030  0.00  0.00    -0.266 OA
ENDROOT
BRANCH   2  12
ATOM     12  C   UNL     1     -15.761   1.174  -7.812  0.00  0.00    -0.001 A 
ATOM     13  C   UNL     1     -16.285  -0.124  -7.636  0.00  0.00    +0.010 A 
ATOM     14  C   UNL     1     -15.692  -1.053  -6.771  0.00  0.00    +0.001 A 
ATOM     15  C   UNL     1     -14.564  -0.707  -6.041  0.00  0.00    +0.000 A 
ATOM     16  C   UNL     1     -14.025   0.564  -6.185  0.00  0.00    +0.001 A 
ATOM     17  C   UNL     1     -14.610   1.487  -7.064  0.00  0.00    +0.010 A 
ENDBRANCH   2  12
BRANCH   7  18
ATOM     18  C   UNL     1     -16.548   6.596 -12.822  0.00  0.00    +0.155 A 
ATOM     19  C   UNL     1     -15.585   6.759 -13.802  0.00  0.00    +0.051 A 
ATOM     20  C   UNL     1     -15.925   7.929 -14.526  0.00  0.00    +0.042 A 
ATOM     21  C   UNL     1     -17.072   8.414 -13.947  0.00  0.00    +0.196 A 
ATOM     22  O   UNL     1     -17.457   7.616 -12.920  0.00  0.00    -0.461 OA
ENDBRANCH   7  18
TORSDOF 2
ENDMDL
MODEL 3
REMARK VINA RESULT:      -7.3      2.468      2.871
REMARK  Name = min_compound970.pdb
REMARK  2 active torsions:
REMARK  status: ('A' for Active; 'I' for Inactive)
REMARK    1  A    between atoms: _2  and  _17
REMARK    2  A    between atoms: _11  and  _12
REMARK                            x       y       z     vdW  Elec       q    Type
REMARK                         _______ _______ _______ _____ _____    ______ ____
ROOT
ATOM      1  C   UNL     1     -11.930   3.737 -17.734  0.00  0.00    +0.098 A 
ATOM      2  C   UNL     1     -12.150   2.728 -16.861  0.00  0.00    +0.053 A 
ATOM      3  N   UNL     1     -13.158   2.853 -15.904  0.00  0.00    -0.339 N 
ATOM      4  H   UNL     1     -13.341   2.053 -15.311  0.00  0.00    +0.167 HD
ATOM      5  C   UNL     1     -13.920   3.967 -15.799  0.00  0.00    +0.139 A 
ATOM      6  C   UNL     1     -14.927   4.359 -14.958  0.00  0.00    +0.079 A 
ATOM      7  C   UNL     1     -15.289   5.651 -15.413  0.00  0.00    +0.130 A 
ATOM      8  N   UNL     1     -14.559   6.039 -16.469  0.00  0.00    -0.159 NA
ATOM      9  N   UNL     1     -13.715   5.000 -16.688  0.00  0.00    -0.179 N 
ATOM     10  C   UNL     1     -12.750   4.980 -17.702  0.00  0.00    +0.275 A 
ATOM     11  O   UNL     1     -12.596   5.906 -18.488  0.00  0.00    -0.266 OA
ENDROOT
BRANCH   2  12
ATOM     12  C   UNL     1     -11.324   1.469 -16.889  0.00  0.00    -0.001 A 
ATOM     13  C   UNL     1     -10.011   1.451 -17.404  0.00  0.00    +0.010 A 
ATOM     14  C   UNL     1      -9.239   0.282 -17.426  0.00  0.00    +0.001 A 
ATOM     15  C   UNL     1      -9.761  -0.910 -16.945  0.00  0.00    +0.000 A 
ATOM     16  C   UNL     1     -11.052  -0.930 -16.436  0.00  0.00    +0.001 A 
ATOM     17  C   UNL     1     -11.818   0.244 -16.401  0.00  0.00    +0.010 A 
ENDBRANCH   2  12
BRANCH   7  18
ATOM     18  C   UNL     1     -16.351   6.528 -14.827  0.00  0.00    +0.155 A 
ATOM     19  C   UNL     1     -16.640   6.694 -13.484  0.00  0.00    +0.051 A 
ATOM     20  C   UNL     1     -17.715   7.615 -13.403  0.00  0.00    +0.042 A 
ATOM     21  C   UNL     1     -18.020   7.957 -14.697  0.00  0.00    +0.196 A 
ATOM     22  O   UNL     1     -17.202   7.310 -15.564  0.00  0.00    -0.461 OA
ENDBRANCH   7  18
TORSDOF 2
ENDMDL
MODEL 4
REMARK VINA RESULT:      -7.3      2.198      2.478
REMARK  Name = min_compound970.pdb
REMARK  2 active torsions:
REMARK  status: ('A' for Active; 'I' for Inactive)
REMARK    1  A    between atoms: _2  and  _17
REMARK    2  A    between atoms: _11  and  _12
REMARK                            x       y       z     vdW  Elec       q    Type
REMARK                         _______ _______ _______ _____ _____    ______ ____
ROOT
ATOM      1  C   UNL     1     -11.514   4.544 -17.645  0.00  0.00    +0.098 A 
ATOM      2  C   UNL     1     -12.172   3.514 -17.066  0.00  0.00    +0.053 A 
ATOM      3  N   UNL     1     -13.419   3.736 -16.479  0.00  0.00    -0.339 N 
ATOM      4  H   UNL     1     -13.913   2.931 -16.114  0.00  0.00    +0.167 HD
ATOM      5  C   UNL     1     -13.995   4.960 -16.448  0.00  0.00    +0.139 A 
ATOM      6  C   UNL     1     -15.161   5.454 -15.927  0.00  0.00    +0.079 A 
ATOM      7  C   UNL     1     -15.145   6.832 -16.260  0.00  0.00    +0.130 A 
ATOM      8  N   UNL     1     -14.045   7.174 -16.946  0.00  0.00    -0.159 NA
ATOM      9  N   UNL     1     -13.342   6.019 -17.044  0.00  0.00    -0.179 N 
ATOM     10  C   UNL     1     -12.100   5.914 -17.680  0.00  0.00    +0.275 A 
ATOM     11  O   UNL     1     -11.546   6.866 -18.214  0.00  0.00    -0.266 OA
ENDROOT
BRANCH   2  12
ATOM     12  C   UNL     1     -11.585   2.128 -17.027  0.00  0.00    -0.001 A 
ATOM     13  C   UNL     1     -12.368   0.995 -16.725  0.00  0.00    +0.010 A 
ATOM     14  C   UNL     1     -11.826  -0.296 -16.695  0.00  0.00    +0.001 A 
ATOM     15  C   UNL     1     -10.476  -0.494 -16.951  0.00  0.00    +0.000 A 
ATOM     16  C   UNL     1      -9.673   0.600 -17.247  0.00  0.00    +0.001 A 
ATOM     17  C   UNL     1     -10.222   1.889 -17.292  0.00  0.00    +0.010 A 
ENDBRANCH   2  12
BRANCH   7  18
ATOM     18  C   UNL     1     -16.200   7.836 -15.916  0.00  0.00    +0.155 A 
ATOM     19  C   UNL     1     -16.042   8.971 -15.141  0.00  0.00    +0.051 A 
ATOM     20  C   UNL     1     -17.304   9.615 -15.088  0.00  0.00    +0.042 A 
ATOM     21  C   UNL     1     -18.158   8.837 -15.830  0.00  0.00    +0.196 A 
ATOM     22  O   UNL     1     -17.502   7.764 -16.336  0.00  0.00    -0.461 OA
ENDBRANCH   7  18
TORSDOF 2
ENDMDL
MODEL 5
REMARK VINA RESULT:      -7.2      2.010      2.220
REMARK  Name = min_compound970.pdb
REMARK  2 active torsions:
REMARK  status: ('A' for Active; 'I' for Inactive)
REMARK    1  A    between atoms: _2  and  _17
REMARK    2  A    between atoms: _11  and  _12
REMARK                            x       y       z     vdW  Elec       q    Type
REMARK                         _______ _______ _______ _____ _____    ______ ____
ROOT
ATOM      1  C   UNL     1     -14.214   2.091 -16.179  0.00  0.00    +0.098 A 
ATOM      2  C   UNL     1     -12.983   2.446 -16.614  0.00  0.00    +0.053 A 
ATOM      3  N   UNL     1     -12.719   3.784 -16.913  0.00  0.00    -0.339 N 
ATOM      4  H   UNL     1     -11.770   4.026 -17.172  0.00  0.00    +0.167 HD
ATOM      5  C   UNL     1     -13.662   4.748 -16.805  0.00  0.00    +0.139 A 
ATOM      6  C   UNL     1     -13.684   6.095 -17.055  0.00  0.00    +0.079 A 
ATOM      7  C   UNL     1     -15.001   6.498 -16.718  0.00  0.00    +0.130 A 
ATOM      8  N   UNL     1     -15.748   5.474 -16.283  0.00  0.00    -0.159 NA
ATOM      9  N   UNL     1     -14.918   4.404 -16.353  0.00  0.00    -0.179 N 
ATOM     10  C   UNL     1     -15.294   3.102 -16.003  0.00  0.00    +0.275 A 
ATOM     11  O   UNL     1     -16.413   2.823 -15.591  0.00  0.00    -0.266 OA
ENDROOT
BRANCH   2  12
ATOM     12  C   UNL     1     -11.888   1.429 -16.795  0.00  0.00    -0.001 A 
ATOM     13  C   UNL     1     -12.098   0.056 -16.548  0.00  0.00    +0.010 A 
ATOM     14  C   UNL     1     -11.082  -0.893 -16.721  0.00  0.00    +0.001 A 
ATOM     15  C   UNL     1      -9.818  -0.497 -17.133  0.00  0.00    +0.000 A 
ATOM     16  C   UNL     1      -9.573   0.848 -17.379  0.00  0.00    +0.001 A 
ATOM     17  C   UNL     1     -10.596   1.794 -17.221  0.00  0.00    +0.010 A 
ENDBRANCH   2  12
BRANCH   7  18
ATOM     18  C   UNL     1     -15.550   7.887 -16.813  0.00  0.00    +0.155 A 
ATOM     19  C   UNL     1     -15.941   8.545 -17.966  0.00  0.00    +0.051 A 
ATOM     20  C   UNL     1     -16.394   9.831 -17.575  0.00  0.00    +0.042 A 
ATOM     21  C   UNL     1     -16.252   9.884 -16.210  0.00  0.00    +0.196 A 
ATOM     22  O   UNL     1     -15.746   8.716 -15.741  0.00  0.00    -0.461 OA
ENDBRANCH   7  18
TORSDOF 2
ENDMDL
MODEL 6
REMARK VINA RESULT:      -7.2      2.144      7.864
REMARK  Name = min_compound970.pdb
REMARK  2 active torsions:
REMARK  status: ('A' for Active; 'I' for Inactive)
REMARK    1  A    between atoms: _2  and  _17
REMARK    2  A    between atoms: _11  and  _12
REMARK                            x       y       z     vdW  Elec       q    Type
REMARK                         _______ _______ _______ _____ _____    ______ ____
ROOT
ATOM      1  C   UNL     1     -13.313   6.907 -18.168  0.00  0.00    +0.098 A 
ATOM      2  C   UNL     1     -14.075   6.877 -17.052  0.00  0.00    +0.053 A 
ATOM      3  N   UNL     1     -14.022   5.764 -16.212  0.00  0.00    -0.339 N 
ATOM      4  H   UNL     1     -14.554   5.803 -15.350  0.00  0.00    +0.167 HD
ATOM      5  C   UNL     1     -13.245   4.690 -16.484  0.00  0.00    +0.139 A 
ATOM      6  C   UNL     1     -13.030   3.486 -15.868  0.00  0.00    +0.079 A 
ATOM      7  C   UNL     1     -12.080   2.830 -16.690  0.00  0.00    +0.130 A 
ATOM      8  N   UNL     1     -11.722   3.575 -17.745  0.00  0.00    -0.159 NA
ATOM      9  N   UNL     1     -12.453   4.709 -17.612  0.00  0.00    -0.179 N 
ATOM     10  C   UNL     1     -12.407   5.777 -18.517  0.00  0.00    +0.275 A 
ATOM     11  O   UNL     1     -11.685   5.776 -19.506  0.00  0.00    -0.266 OA
ENDROOT
BRANCH   2  12
ATOM     12  C   UNL     1     -14.993   8.016 -16.695  0.00  0.00    -0.001 A 
ATOM     13  C   UNL     1     -15.585   8.833 -17.680  0.00  0.00    +0.010 A 
ATOM     14  C   UNL     1     -16.444   9.890 -17.351  0.00  0.00    +0.001 A 
ATOM     15  C   UNL     1     -16.726  10.173 -16.022  0.00  0.00    +0.000 A 
ATOM     16  C   UNL     1     -16.156   9.393 -15.025  0.00  0.00    +0.001 A 
ATOM     17  C   UNL     1     -15.310   8.326 -15.358  0.00  0.00    +0.010 A 
ENDBRANCH   2  12
BRANCH   7  18
ATOM     18  C   UNL     1     -11.505   1.467 -16.459  0.00  0.00    +0.155 A 
ATOM     19  C   UNL     1     -10.325   1.166 -15.802  0.00  0.00    +0.051 A 
ATOM     20  C   UNL     1     -10.186  -0.244 -15.825  0.00  0.00    +0.042 A 
ATOM     21  C   UNL     1     -11.286  -0.723 -16.494  0.00  0.00    +0.196 A 
ATOM     22  O   UNL     1     -12.088   0.301 -16.878  0.00  0.00    -0.461 OA
ENDBRANCH   7  18
TORSDOF 2
ENDMDL
MODEL 7
REMARK VINA RESULT:      -7.1     13.101     14.533
REMARK  Name = min_compound970.pdb
REMARK  2 active torsions:
REMARK  status: ('A' for Active; 'I' for Inactive)
REMARK    1  A    between atoms: _2  and  _17
REMARK    2  A    between atoms: _11  and  _12
REMARK                            x       y       z     vdW  Elec       q    Type
REMARK                         _______ _______ _______ _____ _____    ______ ____
ROOT
ATOM      1  C   UNL     1     -14.149  -0.636  -2.774  0.00  0.00    +0.098 A 
ATOM      2  C   UNL     1     -14.715  -1.791  -3.191  0.00  0.00    +0.053 A 
ATOM      3  N   UNL     1     -15.394  -1.824  -4.411  0.00  0.00    -0.339 N 
ATOM      4  H   UNL     1     -15.748  -2.720  -4.724  0.00  0.00    +0.167 HD
ATOM      5  C   UNL     1     -15.528  -0.727  -5.192  0.00  0.00    +0.139 A 
ATOM      6  C   UNL     1     -16.150  -0.476  -6.386  0.00  0.00    +0.079 A 
ATOM      7  C   UNL     1     -15.889   0.894  -6.642  0.00  0.00    +0.130 A 
ATOM      8  N   UNL     1     -15.151   1.458  -5.676  0.00  0.00    -0.159 NA
ATOM      9  N   UNL     1     -14.946   0.455  -4.787  0.00  0.00    -0.179 N 
ATOM     10  C   UNL     1     -14.225   0.604  -3.596  0.00  0.00    +0.275 A 
ATOM     11  O   UNL     1     -13.707   1.662  -3.264  0.00  0.00    -0.266 OA
ENDROOT
BRANCH   2  12
ATOM     12  C   UNL     1     -14.642  -3.047  -2.364  0.00  0.00    -0.001 A 
ATOM     13  C   UNL     1     -13.506  -3.365  -1.591  0.00  0.00    +0.010 A 
ATOM     14  C   UNL     1     -13.437  -4.530  -0.817  0.00  0.00    +0.001 A 
ATOM     15  C   UNL     1     -14.499  -5.424  -0.802  0.00  0.00    +0.000 A 
ATOM     16  C   UNL     1     -15.632  -5.145  -1.555  0.00  0.00    +0.001 A 
ATOM     17  C   UNL     1     -15.704  -3.971  -2.317  0.00  0.00    +0.010 A 
ENDBRANCH   2  12
BRANCH   7  18
ATOM     18  C   UNL     1     -16.355   1.673  -7.832  0.00  0.00    +0.155 A 
ATOM     19  C   UNL     1     -17.626   1.670  -8.379  0.00  0.00    +0.051 A 
ATOM     20  C   UNL     1     -17.603   2.553  -9.487  0.00  0.00    +0.042 A 
ATOM     21  C   UNL     1     -16.322   3.044  -9.554  0.00  0.00    +0.196 A 
ATOM     22  O   UNL     1     -15.562   2.521  -8.559  0.00  0.00    -0.461 OA
ENDBRANCH   7  18
TORSDOF 2
ENDMDL
MODEL 8
REMARK VINA RESULT:      -7.1     10.551     12.703
REMARK  Name = min_compound970.pdb
REMARK  2 active torsions:
REMARK  status: ('A' for Active; 'I' for Inactive)
REMARK    1  A    between atoms: _2  and  _17
REMARK    2  A    between atoms: _11  and  _12
REMARK                            x       y       z     vdW  Elec       q    Type
REMARK                         _______ _______ _______ _____ _____    ______ ____
ROOT
ATOM      1  C   UNL     1     -17.790   2.347  -9.112  0.00  0.00    +0.098 A 
ATOM      2  C   UNL     1     -16.546   2.714  -9.494  0.00  0.00    +0.053 A 
ATOM      3  N   UNL     1     -15.445   2.304  -8.741  0.00  0.00    -0.339 N 
ATOM      4  H   UNL     1     -14.524   2.540  -9.093  0.00  0.00    +0.167 HD
ATOM      5  C   UNL     1     -15.574   1.562  -7.617  0.00  0.00    +0.139 A 
ATOM      6  C   UNL     1     -14.693   1.061  -6.696  0.00  0.00    +0.079 A 
ATOM      7  C   UNL     1     -15.506   0.363  -5.768  0.00  0.00    +0.130 A 
ATOM      8  N   UNL     1     -16.806   0.421  -6.089  0.00  0.00    -0.159 NA
ATOM      9  N   UNL     1     -16.835   1.169  -7.220  0.00  0.00    -0.179 N 
ATOM     10  C   UNL     1     -18.010   1.501  -7.905  0.00  0.00    +0.275 A 
ATOM     11  O   UNL     1     -19.117   1.130  -7.539  0.00  0.00    -0.266 OA
ENDROOT
BRANCH   2  12
ATOM     12  C   UNL     1     -16.318   3.569 -10.713  0.00  0.00    -0.001 A 
ATOM     13  C   UNL     1     -15.282   4.525 -10.770  0.00  0.00    +0.010 A 
ATOM     14  C   UNL     1     -15.064   5.317 -11.905  0.00  0.00    +0.001 A 
ATOM     15  C   UNL     1     -15.887   5.188 -13.015  0.00  0.00    +0.000 A 
ATOM     16  C   UNL     1     -16.920   4.261 -12.992  0.00  0.00    +0.001 A 
ATOM     17  C   UNL     1     -17.126   3.459 -11.861  0.00  0.00    +0.010 A 
ENDBRANCH   2  12
BRANCH   7  18
ATOM     18  C   UNL     1     -15.028  -0.371  -4.554  0.00  0.00    +0.155 A 
ATOM     19  C   UNL     1     -14.619   0.188  -3.356  0.00  0.00    +0.051 A 
ATOM     20  C   UNL     1     -14.257  -0.883  -2.501  0.00  0.00    +0.042 A 
ATOM     21  C   UNL     1     -14.465  -2.032  -3.225  0.00  0.00    +0.196 A 
ATOM     22  O   UNL     1     -14.932  -1.734  -4.463  0.00  0.00    -0.461 OA
ENDBRANCH   7  18
TORSDOF 2
ENDMDL
MODEL 9
REMARK VINA RESULT:      -6.7      3.717      3.915
REMARK  Name = min_compound970.pdb
REMARK  2 active torsions:
REMARK  status: ('A' for Active; 'I' for Inactive)
REMARK    1  A    between atoms: _2  and  _17
REMARK    2  A    between atoms: _11  and  _12
REMARK                            x       y       z     vdW  Elec       q    Type
REMARK                         _______ _______ _______ _____ _____    ______ ____
ROOT
ATOM      1  C   UNL     1     -13.311   2.905 -17.800  0.00  0.00    +0.098 A 
ATOM      2  C   UNL     1     -13.129   1.902 -16.911  0.00  0.00    +0.053 A 
ATOM      3  N   UNL     1     -14.114   1.640 -15.958  0.00  0.00    -0.339 N 
ATOM      4  H   UNL     1     -13.977   0.840 -15.352  0.00  0.00    +0.167 HD
ATOM      5  C   UNL     1     -15.249   2.372 -15.871  0.00  0.00    +0.139 A 
ATOM      6  C   UNL     1     -16.336   2.355 -15.038  0.00  0.00    +0.079 A 
ATOM      7  C   UNL     1     -17.167   3.399 -15.515  0.00  0.00    +0.130 A 
ATOM      8  N   UNL     1     -16.637   4.024 -16.576  0.00  0.00    -0.159 NA
ATOM      9  N   UNL     1     -15.455   3.391 -16.777  0.00  0.00    -0.179 N 
ATOM     10  C   UNL     1     -14.550   3.733 -17.789  0.00  0.00    +0.275 A 
ATOM     11  O   UNL     1     -14.761   4.635 -18.589  0.00  0.00    -0.266 OA
ENDROOT
BRANCH   2  12
ATOM     12  C   UNL     1     -11.880   1.062 -16.918  0.00  0.00    -0.001 A 
ATOM     13  C   UNL     1     -11.878  -0.275 -16.470  0.00  0.00    +0.010 A 
ATOM     14  C   UNL     1     -10.718  -1.060 -16.481  0.00  0.00    +0.001 A 
ATOM     15  C   UNL     1      -9.516  -0.526 -16.927  0.00  0.00    +0.000 A 
ATOM     16  C   UNL     1      -9.480   0.789 -17.369  0.00  0.00    +0.001 A 
ATOM     17  C   UNL     1     -10.646   1.567 -17.373  0.00  0.00    +0.010 A 
ENDBRANCH   2  12
BRANCH   7  18
ATOM     18  C   UNL     1     -18.490   3.804 -14.944  0.00  0.00    +0.155 A 
ATOM     19  C   UNL     1     -19.659   3.063 -14.957  0.00  0.00    +0.051 A 
ATOM     20  C   UNL     1     -20.649   3.840 -14.306  0.00  0.00    +0.042 A 
ATOM     21  C   UNL     1     -20.030   5.009 -13.935  0.00  0.00    +0.196 A 
ATOM     22  O   UNL     1     -18.728   4.996 -14.313  0.00  0.00    -0.461 OA
ENDBRANCH   7  18
TORSDOF 2
ENDMDL
