MODEL 1
REMARK VINA RESULT:      -7.2      0.000      0.000
REMARK  Name = min_compound917.pdb
REMARK  3 active torsions:
REMARK  status: ('A' for Active; 'I' for Inactive)
REMARK    1  A    between atoms: _9  and  _10
REMARK    2  A    between atoms: _9  and  _18
REMARK    3  A    between atoms: _12  and  _13
REMARK                            x       y       z     vdW  Elec       q    Type
REMARK                         _______ _______ _______ _____ _____    ______ ____
ROOT
ATOM      1  C   UNL     1     -15.759   2.714 -15.874  0.00  0.00    +0.029 C 
ATOM      2  C   UNL     1     -15.915   4.205 -15.939  0.00  0.00    +0.009 C 
ATOM      3  C   UNL     1     -14.981   4.451 -17.245  0.00  0.00    +0.039 C 
ATOM      4  C   UNL     1     -13.554   4.077 -16.967  0.00  0.00    -0.002 A 
ATOM      5  C   UNL     1     -12.408   4.749 -17.122  0.00  0.00    +0.064 A 
ATOM      6  S   UNL     1     -11.033   3.777 -16.657  0.00  0.00    -0.003 S 
ATOM      7  N   UNL     1     -11.993   2.340 -16.488  0.00  0.00    -0.292 N 
ATOM      8  C   UNL     1     -13.328   2.746 -16.431  0.00  0.00    +0.051 A 
ATOM      9  C   UNL     1     -14.380   2.119 -15.888  0.00  0.00    -0.000 C 
ENDROOT
BRANCH   7  10
ATOM     10  C   UNL     1     -11.493   1.170 -17.295  0.00  0.00    +0.101 C 
ATOM     11  C   UNL     1      -9.942   1.346 -17.427  0.00  0.00    +0.045 C 
ATOM     12  C   UNL     1      -9.195   0.024 -17.595  0.00  0.00    +0.004 C 
ATOM     13  C   UNL     1      -9.378  -0.882 -16.375  0.00  0.00    +0.000 C 
ATOM     14  C   UNL     1     -10.706  -0.647 -15.654  0.00  0.00    +0.004 C 
ATOM     15  C   UNL     1     -11.788  -0.217 -16.639  0.00  0.00    +0.045 C 
BRANCH  10  16
ATOM     16  N   UNL     1     -12.048   1.028 -18.660  0.00  0.00    -0.308 NA
ATOM     17  H   UNL     1     -11.624   0.187 -19.049  0.00  0.00    +0.120 HD
ATOM     18  H   UNL     1     -11.652   1.791 -19.208  0.00  0.00    +0.120 HD
ENDBRANCH  10  16
ENDBRANCH   7  10
BRANCH   5  19
ATOM     19  S   UNL     1     -12.244   6.353 -17.708  0.00  0.00    -0.134 S 
ATOM     20  H   UNL     1     -13.484   6.479 -18.203  0.00  0.00    +0.108 HD
ENDBRANCH   5  19
TORSDOF 3
ENDMDL
MODEL 2
REMARK VINA RESULT:      -6.4      2.251      3.294
REMARK  Name = min_compound917.pdb
REMARK  3 active torsions:
REMARK  status: ('A' for Active; 'I' for Inactive)
REMARK    1  A    between atoms: _9  and  _10
REMARK    2  A    between atoms: _9  and  _18
REMARK    3  A    between atoms: _12  and  _13
REMARK                            x       y       z     vdW  Elec       q    Type
REMARK                         _______ _______ _______ _____ _____    ______ ____
ROOT
ATOM      1  C   UNL     1     -11.790   6.740 -17.727  0.00  0.00    +0.029 C 
ATOM      2  C   UNL     1     -12.932   7.205 -18.580  0.00  0.00    +0.009 C 
ATOM      3  C   UNL     1     -14.030   6.128 -18.056  0.00  0.00    +0.039 C 
ATOM      4  C   UNL     1     -13.629   4.728 -18.420  0.00  0.00    -0.002 A 
ATOM      5  C   UNL     1     -14.281   3.748 -19.056  0.00  0.00    +0.064 A 
ATOM      6  S   UNL     1     -13.309   2.301 -19.161  0.00  0.00    -0.003 S 
ATOM      7  N   UNL     1     -12.088   2.937 -18.103  0.00  0.00    -0.292 N 
ATOM      8  C   UNL     1     -12.292   4.316 -18.027  0.00  0.00    +0.051 A 
ATOM      9  C   UNL     1     -11.418   5.285 -17.727  0.00  0.00    -0.000 C 
ENDROOT
BRANCH   7  10
ATOM     10  C   UNL     1     -11.781   2.055 -16.921  0.00  0.00    +0.101 C 
ATOM     11  C   UNL     1     -12.384   0.645 -17.243  0.00  0.00    +0.045 C 
ATOM     12  C   UNL     1     -11.650  -0.501 -16.548  0.00  0.00    +0.004 C 
ATOM     13  C   UNL     1     -10.192  -0.590 -17.007  0.00  0.00    +0.000 C 
ATOM     14  C   UNL     1      -9.618   0.761 -17.435  0.00  0.00    +0.004 C 
ATOM     15  C   UNL     1     -10.253   1.895 -16.635  0.00  0.00    +0.045 C 
BRANCH  10  16
ATOM     16  N   UNL     1     -12.328   2.492 -15.616  0.00  0.00    -0.308 NA
ATOM     17  H   UNL     1     -12.854   3.344 -15.804  0.00  0.00    +0.120 HD
ATOM     18  H   UNL     1     -11.530   2.802 -15.063  0.00  0.00    +0.120 HD
ENDBRANCH  10  16
ENDBRANCH   7  10
BRANCH   5  19
ATOM     19  S   UNL     1     -15.871   3.837 -19.695  0.00  0.00    -0.134 S 
ATOM     20  H   UNL     1     -16.290   4.878 -18.961  0.00  0.00    +0.108 HD
ENDBRANCH   5  19
TORSDOF 3
ENDMDL
MODEL 3
REMARK VINA RESULT:      -6.2     12.565     13.923
REMARK  Name = min_compound917.pdb
REMARK  3 active torsions:
REMARK  status: ('A' for Active; 'I' for Inactive)
REMARK    1  A    between atoms: _9  and  _10
REMARK    2  A    between atoms: _9  and  _18
REMARK    3  A    between atoms: _12  and  _13
REMARK                            x       y       z     vdW  Elec       q    Type
REMARK                         _______ _______ _______ _____ _____    ______ ____
ROOT
ATOM      1  C   UNL     1     -14.554  -2.510  -1.596  0.00  0.00    +0.029 C 
ATOM      2  C   UNL     1     -15.563  -2.097  -0.566  0.00  0.00    +0.009 C 
ATOM      3  C   UNL     1     -16.839  -1.982  -1.566  0.00  0.00    +0.039 C 
ATOM      4  C   UNL     1     -16.634  -0.892  -2.578  0.00  0.00    -0.002 A 
ATOM      5  C   UNL     1     -17.391   0.153  -2.930  0.00  0.00    +0.064 A 
ATOM      6  S   UNL     1     -16.645   1.075  -4.212  0.00  0.00    -0.003 S 
ATOM      7  N   UNL     1     -15.402  -0.112  -4.464  0.00  0.00    -0.292 N 
ATOM      8  C   UNL     1     -15.399  -0.943  -3.342  0.00  0.00    +0.051 A 
ATOM      9  C   UNL     1     -14.407  -1.694  -2.848  0.00  0.00    -0.000 C 
ENDROOT
BRANCH   7  10
ATOM     10  C   UNL     1     -15.299  -0.600  -5.885  0.00  0.00    +0.101 C 
ATOM     11  C   UNL     1     -16.765  -0.755  -6.415  0.00  0.00    +0.045 C 
ATOM     12  C   UNL     1     -16.882  -0.584  -7.929  0.00  0.00    +0.004 C 
ATOM     13  C   UNL     1     -16.459   0.819  -8.369  0.00  0.00    +0.000 C 
ATOM     14  C   UNL     1     -15.420   1.447  -7.438  0.00  0.00    +0.004 C 
ATOM     15  C   UNL     1     -14.522   0.374  -6.829  0.00  0.00    +0.045 C 
BRANCH  10  16
ATOM     16  N   UNL     1     -14.607  -1.894  -6.086  0.00  0.00    -0.308 NA
ATOM     17  H   UNL     1     -14.045  -2.044  -5.250  0.00  0.00    +0.120 HD
ATOM     18  H   UNL     1     -13.926  -1.739  -6.828  0.00  0.00    +0.120 HD
ENDBRANCH  10  16
ENDBRANCH   7  10
BRANCH   5  19
ATOM     19  S   UNL     1     -18.911   0.578  -2.257  0.00  0.00    -0.134 S 
ATOM     20  H   UNL     1     -19.203   1.568  -3.113  0.00  0.00    +0.108 HD
ENDBRANCH   5  19
TORSDOF 3
ENDMDL
MODEL 4
REMARK VINA RESULT:      -6.2      2.247      3.390
REMARK  Name = min_compound917.pdb
REMARK  3 active torsions:
REMARK  status: ('A' for Active; 'I' for Inactive)
REMARK    1  A    between atoms: _9  and  _10
REMARK    2  A    between atoms: _9  and  _18
REMARK    3  A    between atoms: _12  and  _13
REMARK                            x       y       z     vdW  Elec       q    Type
REMARK                         _______ _______ _______ _____ _____    ______ ____
ROOT
ATOM      1  C   UNL     1     -12.579   7.214 -18.357  0.00  0.00    +0.029 C 
ATOM      2  C   UNL     1     -14.044   7.456 -18.143  0.00  0.00    +0.009 C 
ATOM      3  C   UNL     1     -14.158   6.738 -16.689  0.00  0.00    +0.039 C 
ATOM      4  C   UNL     1     -13.869   5.268 -16.788  0.00  0.00    -0.002 A 
ATOM      5  C   UNL     1     -14.555   4.194 -16.383  0.00  0.00    +0.064 A 
ATOM      6  S   UNL     1     -13.695   2.717 -16.743  0.00  0.00    -0.003 S 
ATOM      7  N   UNL     1     -12.259   3.566 -17.224  0.00  0.00    -0.292 N 
ATOM      8  C   UNL     1     -12.623   4.897 -17.436  0.00  0.00    +0.051 A 
ATOM      9  C   UNL     1     -12.034   5.823 -18.203  0.00  0.00    -0.000 C 
ENDROOT
BRANCH   7  10
ATOM     10  C   UNL     1     -11.015   3.130 -16.494  0.00  0.00    +0.101 C 
ATOM     11  C   UNL     1     -11.458   2.030 -15.469  0.00  0.00    +0.045 C 
ATOM     12  C   UNL     1     -10.350   1.032 -15.136  0.00  0.00    +0.004 C 
ATOM     13  C   UNL     1      -9.909   0.250 -16.376  0.00  0.00    +0.000 C 
ATOM     14  C   UNL     1     -10.094   1.038 -17.673  0.00  0.00    +0.004 C 
ATOM     15  C   UNL     1      -9.914   2.533 -17.428  0.00  0.00    +0.045 C 
BRANCH  10  16
ATOM     16  N   UNL     1     -10.293   4.181 -15.742  0.00  0.00    -0.308 NA
ATOM     17  H   UNL     1     -10.673   4.161 -14.797  0.00  0.00    +0.120 HD
ATOM     18  H   UNL     1     -10.609   5.071 -16.125  0.00  0.00    +0.120 HD
ENDBRANCH  10  16
ENDBRANCH   7  10
BRANCH   5  19
ATOM     19  S   UNL     1     -16.079   4.201 -15.595  0.00  0.00    -0.134 S 
ATOM     20  H   UNL     1     -16.838   4.104 -16.696  0.00  0.00    +0.108 HD
ENDBRANCH   5  19
TORSDOF 3
ENDMDL
MODEL 5
REMARK VINA RESULT:      -6.2      2.832      5.138
REMARK  Name = min_compound917.pdb
REMARK  3 active torsions:
REMARK  status: ('A' for Active; 'I' for Inactive)
REMARK    1  A    between atoms: _9  and  _10
REMARK    2  A    between atoms: _9  and  _18
REMARK    3  A    between atoms: _12  and  _13
REMARK                            x       y       z     vdW  Elec       q    Type
REMARK                         _______ _______ _______ _____ _____    ______ ____
ROOT
ATOM      1  C   UNL     1     -11.128   3.418 -15.508  0.00  0.00    +0.029 C 
ATOM      2  C   UNL     1     -10.323   3.974 -16.645  0.00  0.00    +0.009 C 
ATOM      3  C   UNL     1     -11.415   5.064 -17.154  0.00  0.00    +0.039 C 
ATOM      4  C   UNL     1     -12.657   4.389 -17.660  0.00  0.00    -0.002 A 
ATOM      5  C   UNL     1     -13.326   4.500 -18.812  0.00  0.00    +0.064 A 
ATOM      6  S   UNL     1     -14.742   3.477 -18.825  0.00  0.00    -0.003 S 
ATOM      7  N   UNL     1     -14.578   3.077 -17.143  0.00  0.00    -0.292 N 
ATOM      8  C   UNL     1     -13.282   3.431 -16.765  0.00  0.00    +0.051 A 
ATOM      9  C   UNL     1     -12.534   2.955 -15.761  0.00  0.00    -0.000 C 
ENDROOT
BRANCH   7  10
ATOM     10  C   UNL     1     -15.811   3.355 -16.324  0.00  0.00    +0.101 C 
ATOM     11  C   UNL     1     -15.911   2.209 -15.259  0.00  0.00    +0.045 C 
ATOM     12  C   UNL     1     -16.634   2.632 -13.981  0.00  0.00    +0.004 C 
ATOM     13  C   UNL     1     -15.890   3.761 -13.264  0.00  0.00    +0.000 C 
ATOM     14  C   UNL     1     -15.091   4.649 -14.221  0.00  0.00    +0.004 C 
ATOM     15  C   UNL     1     -15.775   4.730 -15.582  0.00  0.00    +0.045 C 
BRANCH  10  16
ATOM     16  N   UNL     1     -17.094   3.398 -17.062  0.00  0.00    -0.308 NA
ATOM     17  H   UNL     1     -17.016   4.179 -17.712  0.00  0.00    +0.120 HD
ATOM     18  H   UNL     1     -17.798   3.697 -16.388  0.00  0.00    +0.120 HD
ENDBRANCH  10  16
ENDBRANCH   7  10
BRANCH   5  19
ATOM     19  S   UNL     1     -12.907   5.506 -20.137  0.00  0.00    -0.134 S 
ATOM     20  H   UNL     1     -14.043   6.218 -20.173  0.00  0.00    +0.108 HD
ENDBRANCH   5  19
TORSDOF 3
ENDMDL
MODEL 6
REMARK VINA RESULT:      -6.0     11.255     12.550
REMARK  Name = min_compound917.pdb
REMARK  3 active torsions:
REMARK  status: ('A' for Active; 'I' for Inactive)
REMARK    1  A    between atoms: _9  and  _10
REMARK    2  A    between atoms: _9  and  _18
REMARK    3  A    between atoms: _12  and  _13
REMARK                            x       y       z     vdW  Elec       q    Type
REMARK                         _______ _______ _______ _____ _____    ______ ____
ROOT
ATOM      1  C   UNL     1     -15.831   2.279  -8.466  0.00  0.00    +0.029 C 
ATOM      2  C   UNL     1     -17.166   2.221  -9.147  0.00  0.00    +0.009 C 
ATOM      3  C   UNL     1     -18.081   2.297  -7.806  0.00  0.00    +0.039 C 
ATOM      4  C   UNL     1     -17.871   1.089  -6.939  0.00  0.00    -0.002 A 
ATOM      5  C   UNL     1     -18.730   0.215  -6.403  0.00  0.00    +0.064 A 
ATOM      6  S   UNL     1     -17.899  -0.984  -5.442  0.00  0.00    -0.003 S 
ATOM      7  N   UNL     1     -16.381  -0.148  -5.551  0.00  0.00    -0.292 N 
ATOM      8  C   UNL     1     -16.496   0.773  -6.593  0.00  0.00    +0.051 A 
ATOM      9  C   UNL     1     -15.535   1.324  -7.346  0.00  0.00    -0.000 C 
ENDROOT
BRANCH   7  10
ATOM     10  C   UNL     1     -15.748   0.150  -4.217  0.00  0.00    +0.101 C 
ATOM     11  C   UNL     1     -14.198   0.145  -4.442  0.00  0.00    +0.045 C 
ATOM     12  C   UNL     1     -13.440   1.036  -3.460  0.00  0.00    +0.004 C 
ATOM     13  C   UNL     1     -13.847   2.505  -3.608  0.00  0.00    +0.000 C 
ATOM     14  C   UNL     1     -15.282   2.677  -4.106  0.00  0.00    +0.004 C 
ATOM     15  C   UNL     1     -16.165   1.533  -3.618  0.00  0.00    +0.045 C 
BRANCH  10  16
ATOM     16  N   UNL     1     -16.047  -0.800  -3.121  0.00  0.00    -0.308 NA
ATOM     17  H   UNL     1     -15.497  -1.635  -3.316  0.00  0.00    +0.120 HD
ATOM     18  H   UNL     1     -17.014  -1.094  -3.257  0.00  0.00    +0.120 HD
ENDBRANCH  10  16
ENDBRANCH   7  10
BRANCH   5  19
ATOM     19  S   UNL     1     -20.436   0.224  -6.588  0.00  0.00    -0.134 S 
ATOM     20  H   UNL     1     -20.595   1.555  -6.605  0.00  0.00    +0.108 HD
ENDBRANCH   5  19
TORSDOF 3
ENDMDL
MODEL 7
REMARK VINA RESULT:      -5.9      1.574      1.979
REMARK  Name = min_compound917.pdb
REMARK  3 active torsions:
REMARK  status: ('A' for Active; 'I' for Inactive)
REMARK    1  A    between atoms: _9  and  _10
REMARK    2  A    between atoms: _9  and  _18
REMARK    3  A    between atoms: _12  and  _13
REMARK                            x       y       z     vdW  Elec       q    Type
REMARK                         _______ _______ _______ _____ _____    ______ ____
ROOT
ATOM      1  C   UNL     1     -15.750   2.486 -15.434  0.00  0.00    +0.029 C 
ATOM      2  C   UNL     1     -16.669   3.465 -16.103  0.00  0.00    +0.009 C 
ATOM      3  C   UNL     1     -15.894   3.528 -17.530  0.00  0.00    +0.039 C 
ATOM      4  C   UNL     1     -14.519   4.109 -17.373  0.00  0.00    -0.002 A 
ATOM      5  C   UNL     1     -13.897   5.114 -17.999  0.00  0.00    +0.064 A 
ATOM      6  S   UNL     1     -12.265   5.318 -17.411  0.00  0.00    -0.003 S 
ATOM      7  N   UNL     1     -12.325   3.855 -16.477  0.00  0.00    -0.292 N 
ATOM      8  C   UNL     1     -13.669   3.496 -16.366  0.00  0.00    +0.051 A 
ATOM      9  C   UNL     1     -14.271   2.749 -15.432  0.00  0.00    -0.000 C 
ENDROOT
BRANCH   7  10
ATOM     10  C   UNL     1     -11.208   2.890 -16.777  0.00  0.00    +0.101 C 
ATOM     11  C   UNL     1     -10.885   2.145 -15.437  0.00  0.00    +0.045 C 
ATOM     12  C   UNL     1     -10.310   0.745 -15.647  0.00  0.00    +0.004 C 
ATOM     13  C   UNL     1     -11.306  -0.168 -16.366  0.00  0.00    +0.000 C 
ATOM     14  C   UNL     1     -12.255   0.597 -17.289  0.00  0.00    +0.004 C 
ATOM     15  C   UNL     1     -11.569   1.831 -17.868  0.00  0.00    +0.045 C 
BRANCH  10  16
ATOM     16  N   UNL     1      -9.946   3.481 -17.279  0.00  0.00    -0.308 NA
ATOM     17  H   UNL     1     -10.218   4.153 -17.996  0.00  0.00    +0.120 HD
ATOM     18  H   UNL     1      -9.471   2.740 -17.792  0.00  0.00    +0.120 HD
ENDBRANCH  10  16
ENDBRANCH   7  10
BRANCH   5  19
ATOM     19  S   UNL     1     -14.559   6.103 -19.236  0.00  0.00    -0.134 S 
ATOM     20  H   UNL     1     -15.851   5.902 -18.938  0.00  0.00    +0.108 HD
ENDBRANCH   5  19
TORSDOF 3
ENDMDL
MODEL 8
REMARK VINA RESULT:      -5.8      2.189      2.745
REMARK  Name = min_compound917.pdb
REMARK  3 active torsions:
REMARK  status: ('A' for Active; 'I' for Inactive)
REMARK    1  A    between atoms: _9  and  _10
REMARK    2  A    between atoms: _9  and  _18
REMARK    3  A    between atoms: _12  and  _13
REMARK                            x       y       z     vdW  Elec       q    Type
REMARK                         _______ _______ _______ _____ _____    ______ ____
ROOT
ATOM      1  C   UNL     1     -13.975   2.882 -20.858  0.00  0.00    +0.029 C 
ATOM      2  C   UNL     1     -15.010   3.950 -20.660  0.00  0.00    +0.009 C 
ATOM      3  C   UNL     1     -14.150   4.879 -19.642  0.00  0.00    +0.039 C 
ATOM      4  C   UNL     1     -13.874   4.158 -18.354  0.00  0.00    -0.002 A 
ATOM      5  C   UNL     1     -14.082   4.499 -17.078  0.00  0.00    +0.064 A 
ATOM      6  S   UNL     1     -13.519   3.256 -15.988  0.00  0.00    -0.003 S 
ATOM      7  N   UNL     1     -12.753   2.361 -17.263  0.00  0.00    -0.292 N 
ATOM      8  C   UNL     1     -13.269   2.843 -18.467  0.00  0.00    +0.051 A 
ATOM      9  C   UNL     1     -13.349   2.233 -19.657  0.00  0.00    -0.000 C 
ENDROOT
BRANCH   7  10
ATOM     10  C   UNL     1     -11.295   2.070 -17.017  0.00  0.00    +0.101 C 
ATOM     11  C   UNL     1     -11.161   1.691 -15.503  0.00  0.00    +0.045 C 
ATOM     12  C   UNL     1      -9.985   0.760 -15.213  0.00  0.00    +0.004 C 
ATOM     13  C   UNL     1     -10.143  -0.582 -15.934  0.00  0.00    +0.000 C 
ATOM     14  C   UNL     1     -10.945  -0.470 -17.231  0.00  0.00    +0.004 C 
ATOM     15  C   UNL     1     -10.735   0.894 -17.881  0.00  0.00    +0.045 C 
BRANCH  10  16
ATOM     16  N   UNL     1     -10.350   3.176 -17.291  0.00  0.00    -0.308 NA
ATOM     17  H   UNL     1     -10.349   3.757 -16.454  0.00  0.00    +0.120 HD
ATOM     18  H   UNL     1     -10.790   3.756 -18.003  0.00  0.00    +0.120 HD
ENDBRANCH  10  16
ENDBRANCH   7  10
BRANCH   5  19
ATOM     19  S   UNL     1     -14.792   5.958 -16.520  0.00  0.00    -0.134 S 
ATOM     20  H   UNL     1     -15.197   5.502 -15.326  0.00  0.00    +0.108 HD
ENDBRANCH   5  19
TORSDOF 3
ENDMDL
MODEL 9
REMARK VINA RESULT:      -5.8     12.165     13.665
REMARK  Name = min_compound917.pdb
REMARK  3 active torsions:
REMARK  status: ('A' for Active; 'I' for Inactive)
REMARK    1  A    between atoms: _9  and  _10
REMARK    2  A    between atoms: _9  and  _18
REMARK    3  A    between atoms: _12  and  _13
REMARK                            x       y       z     vdW  Elec       q    Type
REMARK                         _______ _______ _______ _____ _____    ______ ____
ROOT
ATOM      1  C   UNL     1     -14.130   2.522  -4.225  0.00  0.00    +0.029 C 
ATOM      2  C   UNL     1     -13.230   2.054  -3.120  0.00  0.00    +0.009 C 
ATOM      3  C   UNL     1     -13.230   0.477  -3.512  0.00  0.00    +0.039 C 
ATOM      4  C   UNL     1     -14.602  -0.116  -3.369  0.00  0.00    -0.002 A 
ATOM      5  C   UNL     1     -15.045  -1.191  -2.709  0.00  0.00    +0.064 A 
ATOM      6  S   UNL     1     -16.763  -1.413  -2.936  0.00  0.00    -0.003 S 
ATOM      7  N   UNL     1     -16.851  -0.177  -4.153  0.00  0.00    -0.292 N 
ATOM      8  C   UNL     1     -15.679   0.574  -4.058  0.00  0.00    +0.051 A 
ATOM      9  C   UNL     1     -15.451   1.839  -4.435  0.00  0.00    -0.000 C 
ENDROOT
BRANCH   7  10
ATOM     10  C   UNL     1     -17.465  -0.637  -5.449  0.00  0.00    +0.101 C 
ATOM     11  C   UNL     1     -18.301   0.568  -6.004  0.00  0.00    +0.045 C 
ATOM     12  C   UNL     1     -18.432   0.564  -7.526  0.00  0.00    +0.004 C 
ATOM     13  C   UNL     1     -17.067   0.695  -8.206  0.00  0.00    +0.000 C 
ATOM     14  C   UNL     1     -15.926   0.116  -7.368  0.00  0.00    +0.004 C 
ATOM     15  C   UNL     1     -16.415  -1.059  -6.527  0.00  0.00    +0.045 C 
BRANCH  10  16
ATOM     16  N   UNL     1     -18.365  -1.810  -5.370  0.00  0.00    -0.308 NA
ATOM     17  H   UNL     1     -19.266  -1.497  -5.728  0.00  0.00    +0.120 HD
ATOM     18  H   UNL     1     -18.528  -1.976  -4.378  0.00  0.00    +0.120 HD
ENDBRANCH  10  16
ENDBRANCH   7  10
BRANCH   5  19
ATOM     19  S   UNL     1     -14.098  -2.261  -1.759  0.00  0.00    -0.134 S 
ATOM     20  H   UNL     1     -12.972  -2.176  -2.482  0.00  0.00    +0.108 HD
ENDBRANCH   5  19
TORSDOF 3
ENDMDL
