MODEL 1
REMARK VINA RESULT:      -7.2      0.000      0.000
REMARK  Name = min_compound981.pdb
REMARK  7 active torsions:
REMARK  status: ('A' for Active; 'I' for Inactive)
REMARK    1  A    between atoms: _3  and  _7
REMARK    2  A    between atoms: _6  and  _19
REMARK    3  A    between atoms: _8  and  _9
REMARK    4  A    between atoms: _8  and  _10
REMARK    5  A    between atoms: _9  and  _13
REMARK    6  A    between atoms: _10  and  _11
REMARK    7  A    between atoms: _19  and  _20
REMARK                            x       y       z     vdW  Elec       q    Type
REMARK                         _______ _______ _______ _____ _____    ______ ____
ROOT
ATOM      1  C   UNL     1     -13.686   3.949 -17.359  0.00  0.00    +0.016 C 
ATOM      2  C   UNL     1     -12.435   3.162 -17.287  0.00  0.00    +0.014 C 
ENDROOT
BRANCH   1   4
ATOM      3  C   UNL     1     -13.902   6.399 -17.262  0.00  0.00    +0.008 A 
ATOM      4  C   UNL     1     -14.213   5.153 -16.686  0.00  0.00    -0.025 A 
ATOM      5  C   UNL     1     -15.024   5.159 -15.548  0.00  0.00    +0.008 A 
ATOM      6  C   UNL     1     -15.489   6.358 -14.987  0.00  0.00    +0.005 A 
ATOM      7  C   UNL     1     -15.163   7.578 -15.571  0.00  0.00    -0.034 A 
ATOM      8  C   UNL     1     -14.370   7.600 -16.714  0.00  0.00    +0.005 A 
BRANCH   7   9
ATOM      9  C   UNL     1     -15.643   8.799 -15.004  0.00  0.00    +0.113 C 
BRANCH   9  10
ATOM     10  N   UNL     1     -16.131  10.040 -14.424  0.00  0.00    -0.326 NA
ATOM     11  H   UNL     1     -16.727  10.520 -15.099  0.00  0.00    +0.119 HD
ATOM     12  H   UNL     1     -16.670   9.834 -13.583  0.00  0.00    +0.119 HD
ENDBRANCH   9  10
ENDBRANCH   7   9
ENDBRANCH   1   4
BRANCH   2  13
ATOM     13  C   UNL     1     -12.306   2.020 -18.041  0.00  0.00    +0.190 C 
ATOM     14  O   UNL     1     -12.864   1.794 -19.167  0.00  0.00    -0.287 OA
BRANCH  13  15
ATOM     15  C   UNL     1     -11.390   0.926 -17.521  0.00  0.00    +0.022 A 
ATOM     16  C   UNL     1      -9.998   0.925 -17.697  0.00  0.00    +0.012 A 
ATOM     17  C   UNL     1      -9.200  -0.072 -17.128  0.00  0.00    +0.001 A 
ATOM     18  C   UNL     1      -9.771  -1.063 -16.325  0.00  0.00    +0.000 A 
ATOM     19  C   UNL     1     -11.142  -1.060 -16.101  0.00  0.00    +0.001 A 
ATOM     20  C   UNL     1     -11.938  -0.081 -16.700  0.00  0.00    +0.012 A 
ENDBRANCH  13  15
ENDBRANCH   2  13
BRANCH   2  21
ATOM     21  C   UNL     1     -11.416   3.661 -16.307  0.00  0.00    +0.117 C 
BRANCH  21  22
ATOM     22  N   UNL     1     -10.396   4.161 -15.326  0.00  0.00    -0.326 NA
ATOM     23  H   UNL     1     -10.746   4.031 -14.376  0.00  0.00    +0.119 HD
ATOM     24  H   UNL     1      -9.528   3.638 -15.443  0.00  0.00    +0.119 HD
ENDBRANCH  21  22
ENDBRANCH   2  21
TORSDOF 7
ENDMDL
MODEL 2
REMARK VINA RESULT:      -7.2      2.536      3.393
REMARK  Name = min_compound981.pdb
REMARK  7 active torsions:
REMARK  status: ('A' for Active; 'I' for Inactive)
REMARK    1  A    between atoms: _3  and  _7
REMARK    2  A    between atoms: _6  and  _19
REMARK    3  A    between atoms: _8  and  _9
REMARK    4  A    between atoms: _8  and  _10
REMARK    5  A    between atoms: _9  and  _13
REMARK    6  A    between atoms: _10  and  _11
REMARK    7  A    between atoms: _19  and  _20
REMARK                            x       y       z     vdW  Elec       q    Type
REMARK                         _______ _______ _______ _____ _____    ______ ____
ROOT
ATOM      1  C   UNL     1     -14.237   2.262 -16.194  0.00  0.00    +0.016 C 
ATOM      2  C   UNL     1     -13.342   2.764 -17.260  0.00  0.00    +0.014 C 
ENDROOT
BRANCH   1   4
ATOM      3  C   UNL     1     -16.285   2.281 -14.830  0.00  0.00    +0.008 A 
ATOM      4  C   UNL     1     -15.043   2.875 -15.119  0.00  0.00    -0.025 A 
ATOM      5  C   UNL     1     -14.661   3.971 -14.341  0.00  0.00    +0.008 A 
ATOM      6  C   UNL     1     -15.492   4.476 -13.330  0.00  0.00    +0.005 A 
ATOM      7  C   UNL     1     -16.719   3.875 -13.066  0.00  0.00    -0.034 A 
ATOM      8  C   UNL     1     -17.117   2.772 -13.815  0.00  0.00    +0.005 A 
BRANCH   7   9
ATOM      9  C   UNL     1     -17.562   4.384 -12.030  0.00  0.00    +0.113 C 
BRANCH   9  10
ATOM     10  N   UNL     1     -18.420   4.904 -10.978  0.00  0.00    -0.326 NA
ATOM     11  H   UNL     1     -19.293   5.241 -11.385  0.00  0.00    +0.119 HD
ATOM     12  H   UNL     1     -18.623   4.163 -10.307  0.00  0.00    +0.119 HD
ENDBRANCH   9  10
ENDBRANCH   7   9
ENDBRANCH   1   4
BRANCH   2  13
ATOM     13  C   UNL     1     -12.684   1.871 -18.072  0.00  0.00    +0.190 C 
ATOM     14  O   UNL     1     -12.830   1.754 -19.335  0.00  0.00    -0.287 OA
BRANCH  13  15
ATOM     15  C   UNL     1     -11.658   0.953 -17.433  0.00  0.00    +0.022 A 
ATOM     16  C   UNL     1     -11.988  -0.212 -16.724  0.00  0.00    +0.012 A 
ATOM     17  C   UNL     1     -10.993  -1.058 -16.223  0.00  0.00    +0.001 A 
ATOM     18  C   UNL     1      -9.644  -0.785 -16.466  0.00  0.00    +0.000 A 
ATOM     19  C   UNL     1      -9.293   0.339 -17.201  0.00  0.00    +0.001 A 
ATOM     20  C   UNL     1     -10.289   1.199 -17.670  0.00  0.00    +0.012 A 
ENDBRANCH  13  15
ENDBRANCH   2  13
BRANCH   2  21
ATOM     21  C   UNL     1     -13.172   4.253 -17.309  0.00  0.00    +0.117 C 
BRANCH  21  22
ATOM     22  N   UNL     1     -13.003   5.743 -17.359  0.00  0.00    -0.326 NA
ATOM     23  H   UNL     1     -12.816   6.032 -18.320  0.00  0.00    +0.119 HD
ATOM     24  H   UNL     1     -13.856   6.194 -17.028  0.00  0.00    +0.119 HD
ENDBRANCH  21  22
ENDBRANCH   2  21
TORSDOF 7
ENDMDL
MODEL 3
REMARK VINA RESULT:      -7.0      3.129      3.931
REMARK  Name = min_compound981.pdb
REMARK  7 active torsions:
REMARK  status: ('A' for Active; 'I' for Inactive)
REMARK    1  A    between atoms: _3  and  _7
REMARK    2  A    between atoms: _6  and  _19
REMARK    3  A    between atoms: _8  and  _9
REMARK    4  A    between atoms: _8  and  _10
REMARK    5  A    between atoms: _9  and  _13
REMARK    6  A    between atoms: _10  and  _11
REMARK    7  A    between atoms: _19  and  _20
REMARK                            x       y       z     vdW  Elec       q    Type
REMARK                         _______ _______ _______ _____ _____    ______ ____
ROOT
ATOM      1  C   UNL     1     -13.679   3.269 -15.335  0.00  0.00    +0.016 C 
ATOM      2  C   UNL     1     -13.334   3.183 -16.771  0.00  0.00    +0.014 C 
ENDROOT
BRANCH   1   4
ATOM      3  C   UNL     1     -15.953   2.519 -14.768  0.00  0.00    +0.008 A 
ATOM      4  C   UNL     1     -14.922   3.454 -14.559  0.00  0.00    -0.025 A 
ATOM      5  C   UNL     1     -15.147   4.455 -13.610  0.00  0.00    +0.008 A 
ATOM      6  C   UNL     1     -16.361   4.541 -12.911  0.00  0.00    +0.005 A 
ATOM      7  C   UNL     1     -17.369   3.608 -13.140  0.00  0.00    -0.034 A 
ATOM      8  C   UNL     1     -17.164   2.592 -14.067  0.00  0.00    +0.005 A 
BRANCH   7   9
ATOM      9  C   UNL     1     -18.602   3.692 -12.421  0.00  0.00    +0.113 C 
BRANCH   9  10
ATOM     10  N   UNL     1     -19.857   3.774 -11.692  0.00  0.00    -0.326 NA
ATOM     11  H   UNL     1     -19.741   4.384 -10.883  0.00  0.00    +0.119 HD
ATOM     12  H   UNL     1     -20.580   4.154 -12.302  0.00  0.00    +0.119 HD
ENDBRANCH   9  10
ENDBRANCH   7   9
ENDBRANCH   1   4
BRANCH   2  13
ATOM     13  C   UNL     1     -12.017   3.068 -17.149  0.00  0.00    +0.190 C 
ATOM     14  O   UNL     1     -11.275   4.010 -17.590  0.00  0.00    -0.287 OA
BRANCH  13  15
ATOM     15  C   UNL     1     -11.353   1.711 -17.003  0.00  0.00    +0.022 A 
ATOM     16  C   UNL     1     -12.039   0.542 -16.641  0.00  0.00    +0.012 A 
ATOM     17  C   UNL     1     -11.386  -0.694 -16.597  0.00  0.00    +0.001 A 
ATOM     18  C   UNL     1     -10.042  -0.797 -16.966  0.00  0.00    +0.000 A 
ATOM     19  C   UNL     1      -9.352   0.339 -17.369  0.00  0.00    +0.001 A 
ATOM     20  C   UNL     1     -10.000   1.576 -17.378  0.00  0.00    +0.012 A 
ENDBRANCH  13  15
ENDBRANCH   2  13
BRANCH   2  21
ATOM     21  C   UNL     1     -14.490   3.308 -17.719  0.00  0.00    +0.117 C 
BRANCH  21  22
ATOM     22  N   UNL     1     -15.645   3.433 -18.668  0.00  0.00    -0.326 NA
ATOM     23  H   UNL     1     -15.819   4.419 -18.864  0.00  0.00    +0.119 HD
ATOM     24  H   UNL     1     -15.425   2.947 -19.537  0.00  0.00    +0.119 HD
ENDBRANCH  21  22
ENDBRANCH   2  21
TORSDOF 7
ENDMDL
MODEL 4
REMARK VINA RESULT:      -6.6      7.886      9.914
REMARK  Name = min_compound981.pdb
REMARK  7 active torsions:
REMARK  status: ('A' for Active; 'I' for Inactive)
REMARK    1  A    between atoms: _3  and  _7
REMARK    2  A    between atoms: _6  and  _19
REMARK    3  A    between atoms: _8  and  _9
REMARK    4  A    between atoms: _8  and  _10
REMARK    5  A    between atoms: _9  and  _13
REMARK    6  A    between atoms: _10  and  _11
REMARK    7  A    between atoms: _19  and  _20
REMARK                            x       y       z     vdW  Elec       q    Type
REMARK                         _______ _______ _______ _____ _____    ______ ____
ROOT
ATOM      1  C   UNL     1     -16.892   2.325  -9.110  0.00  0.00    +0.016 C 
ATOM      2  C   UNL     1     -17.241   3.562  -9.842  0.00  0.00    +0.014 C 
ENDROOT
BRANCH   1   4
ATOM      3  C   UNL     1     -14.974   1.412  -7.868  0.00  0.00    +0.008 A 
ATOM      4  C   UNL     1     -16.246   2.011  -7.819  0.00  0.00    -0.025 A 
ATOM      5  C   UNL     1     -16.774   2.292  -6.556  0.00  0.00    +0.008 A 
ATOM      6  C   UNL     1     -16.077   1.966  -5.383  0.00  0.00    +0.005 A 
ATOM      7  C   UNL     1     -14.822   1.368  -5.456  0.00  0.00    -0.034 A 
ATOM      8  C   UNL     1     -14.266   1.093  -6.701  0.00  0.00    +0.005 A 
BRANCH   7   9
ATOM      9  C   UNL     1     -14.108   1.044  -4.261  0.00  0.00    +0.113 C 
BRANCH   9  10
ATOM     10  N   UNL     1     -13.380   0.717  -3.045  0.00  0.00    -0.326 NA
ATOM     11  H   UNL     1     -13.953   0.109  -2.459  0.00  0.00    +0.119 HD
ATOM     12  H   UNL     1     -12.513   0.237  -3.287  0.00  0.00    +0.119 HD
ENDBRANCH   9  10
ENDBRANCH   7   9
ENDBRANCH   1   4
BRANCH   2  13
ATOM     13  C   UNL     1     -17.800   3.475 -11.096  0.00  0.00    +0.190 C 
ATOM     14  O   UNL     1     -19.048   3.461 -11.365  0.00  0.00    -0.287 OA
BRANCH  13  15
ATOM     15  C   UNL     1     -16.862   3.427 -12.288  0.00  0.00    +0.022 A 
ATOM     16  C   UNL     1     -17.084   2.631 -13.423  0.00  0.00    +0.012 A 
ATOM     17  C   UNL     1     -16.222   2.687 -14.523  0.00  0.00    +0.001 A 
ATOM     18  C   UNL     1     -15.146   3.579 -14.535  0.00  0.00    +0.000 A 
ATOM     19  C   UNL     1     -14.930   4.407 -13.440  0.00  0.00    +0.001 A 
ATOM     20  C   UNL     1     -15.774   4.323 -12.331  0.00  0.00    +0.012 A 
ENDBRANCH  13  15
ENDBRANCH   2  13
BRANCH   2  21
ATOM     21  C   UNL     1     -16.873   4.843  -9.155  0.00  0.00    +0.117 C 
BRANCH  21  22
ATOM     22  N   UNL     1     -16.505   6.124  -8.468  0.00  0.00    -0.326 NA
ATOM     23  H   UNL     1     -16.025   6.738  -9.127  0.00  0.00    +0.119 HD
ATOM     24  H   UNL     1     -17.350   6.583  -8.128  0.00  0.00    +0.119 HD
ENDBRANCH  21  22
ENDBRANCH   2  21
TORSDOF 7
ENDMDL
MODEL 5
REMARK VINA RESULT:      -6.5      8.249     10.391
REMARK  Name = min_compound981.pdb
REMARK  7 active torsions:
REMARK  status: ('A' for Active; 'I' for Inactive)
REMARK    1  A    between atoms: _3  and  _7
REMARK    2  A    between atoms: _6  and  _19
REMARK    3  A    between atoms: _8  and  _9
REMARK    4  A    between atoms: _8  and  _10
REMARK    5  A    between atoms: _9  and  _13
REMARK    6  A    between atoms: _10  and  _11
REMARK    7  A    between atoms: _19  and  _20
REMARK                            x       y       z     vdW  Elec       q    Type
REMARK                         _______ _______ _______ _____ _____    ______ ____
ROOT
ATOM      1  C   UNL     1     -15.974   2.559  -8.988  0.00  0.00    +0.016 C 
ATOM      2  C   UNL     1     -17.174   3.185  -9.585  0.00  0.00    +0.014 C 
ENDROOT
BRANCH   1   4
ATOM      3  C   UNL     1     -14.539   1.545  -7.266  0.00  0.00    +0.008 A 
ATOM      4  C   UNL     1     -15.723   1.471  -8.021  0.00  0.00    -0.025 A 
ATOM      5  C   UNL     1     -16.579   0.395  -7.768  0.00  0.00    +0.008 A 
ATOM      6  C   UNL     1     -16.259  -0.586  -6.818  0.00  0.00    +0.005 A 
ATOM      7  C   UNL     1     -15.078  -0.495  -6.087  0.00  0.00    -0.034 A 
ATOM      8  C   UNL     1     -14.216   0.575  -6.307  0.00  0.00    +0.005 A 
BRANCH   7   9
ATOM      9  C   UNL     1     -14.756  -1.490  -5.113  0.00  0.00    +0.113 C 
BRANCH   9  10
ATOM     10  N   UNL     1     -14.431  -2.504  -4.123  0.00  0.00    -0.326 NA
ATOM     11  H   UNL     1     -15.292  -2.894  -3.740  0.00  0.00    +0.119 HD
ATOM     12  H   UNL     1     -13.888  -3.248  -4.563  0.00  0.00    +0.119 HD
ENDBRANCH   9  10
ENDBRANCH   7   9
ENDBRANCH   1   4
BRANCH   2  13
ATOM     13  C   UNL     1     -17.032   4.258 -10.433  0.00  0.00    +0.190 C 
ATOM     14  O   UNL     1     -17.249   5.482 -10.141  0.00  0.00    -0.287 OA
BRANCH  13  15
ATOM     15  C   UNL     1     -16.538   3.988 -11.843  0.00  0.00    +0.022 A 
ATOM     16  C   UNL     1     -15.374   4.556 -12.384  0.00  0.00    +0.012 A 
ATOM     17  C   UNL     1     -14.930   4.208 -13.663  0.00  0.00    +0.001 A 
ATOM     18  C   UNL     1     -15.611   3.244 -14.411  0.00  0.00    +0.000 A 
ATOM     19  C   UNL     1     -16.742   2.636 -13.881  0.00  0.00    +0.001 A 
ATOM     20  C   UNL     1     -17.200   3.012 -12.616  0.00  0.00    +0.012 A 
ENDBRANCH  13  15
ENDBRANCH   2  13
BRANCH   2  21
ATOM     21  C   UNL     1     -18.488   2.617  -9.136  0.00  0.00    +0.117 C 
BRANCH  21  22
ATOM     22  N   UNL     1     -19.801   2.048  -8.687  0.00  0.00    -0.326 NA
ATOM     23  H   UNL     1     -19.987   2.338  -7.726  0.00  0.00    +0.119 HD
ATOM     24  H   UNL     1     -20.546   2.391  -9.295  0.00  0.00    +0.119 HD
ENDBRANCH  21  22
ENDBRANCH   2  21
TORSDOF 7
ENDMDL
MODEL 6
REMARK VINA RESULT:      -6.5      8.787     10.117
REMARK  Name = min_compound981.pdb
REMARK  7 active torsions:
REMARK  status: ('A' for Active; 'I' for Inactive)
REMARK    1  A    between atoms: _3  and  _7
REMARK    2  A    between atoms: _6  and  _19
REMARK    3  A    between atoms: _8  and  _9
REMARK    4  A    between atoms: _8  and  _10
REMARK    5  A    between atoms: _9  and  _13
REMARK    6  A    between atoms: _10  and  _11
REMARK    7  A    between atoms: _19  and  _20
REMARK                            x       y       z     vdW  Elec       q    Type
REMARK                         _______ _______ _______ _____ _____    ______ ____
ROOT
ATOM      1  C   UNL     1     -16.078   2.482  -8.725  0.00  0.00    +0.016 C 
ATOM      2  C   UNL     1     -16.778   1.419  -7.971  0.00  0.00    +0.014 C 
ENDROOT
BRANCH   1   4
ATOM      3  C   UNL     1     -16.523   4.859  -9.183  0.00  0.00    +0.008 A 
ATOM      4  C   UNL     1     -16.479   3.541  -9.673  0.00  0.00    -0.025 A 
ATOM      5  C   UNL     1     -16.784   3.349 -11.024  0.00  0.00    +0.008 A 
ATOM      6  C   UNL     1     -17.143   4.423 -11.852  0.00  0.00    +0.005 A 
ATOM      7  C   UNL     1     -17.186   5.718 -11.342  0.00  0.00    -0.034 A 
ATOM      8  C   UNL     1     -16.871   5.938 -10.005  0.00  0.00    +0.005 A 
BRANCH   7   9
ATOM      9  C   UNL     1     -17.544   6.813 -12.188  0.00  0.00    +0.113 C 
BRANCH   9  10
ATOM     10  N   UNL     1     -17.906   7.927 -13.049  0.00  0.00    -0.326 NA
ATOM     11  H   UNL     1     -18.862   7.804 -13.381  0.00  0.00    +0.119 HD
ATOM     12  H   UNL     1     -17.839   8.799 -12.524  0.00  0.00    +0.119 HD
ENDBRANCH   9  10
ENDBRANCH   7   9
ENDBRANCH   1   4
BRANCH   2  13
ATOM     13  C   UNL     1     -16.053   0.541  -7.201  0.00  0.00    +0.190 C 
ATOM     14  O   UNL     1     -15.871  -0.700  -7.443  0.00  0.00    -0.287 OA
BRANCH  13  15
ATOM     15  C   UNL     1     -15.367   1.084  -5.960  0.00  0.00    +0.022 A 
ATOM     16  C   UNL     1     -15.926   2.065  -5.126  0.00  0.00    +0.012 A 
ATOM     17  C   UNL     1     -15.279   2.469  -3.954  0.00  0.00    +0.001 A 
ATOM     18  C   UNL     1     -14.082   1.863  -3.562  0.00  0.00    +0.000 A 
ATOM     19  C   UNL     1     -13.531   0.860  -4.348  0.00  0.00    +0.001 A 
ATOM     20  C   UNL     1     -14.164   0.483  -5.535  0.00  0.00    +0.012 A 
ENDBRANCH  13  15
ENDBRANCH   2  13
BRANCH   2  21
ATOM     21  C   UNL     1     -18.261   1.351  -8.182  0.00  0.00    +0.117 C 
BRANCH  21  22
ATOM     22  N   UNL     1     -19.745   1.282  -8.393  0.00  0.00    -0.326 NA
ATOM     23  H   UNL     1     -20.065   2.142  -8.839  0.00  0.00    +0.119 HD
ATOM     24  H   UNL     1     -19.966   0.486  -8.992  0.00  0.00    +0.119 HD
ENDBRANCH  21  22
ENDBRANCH   2  21
TORSDOF 7
ENDMDL
MODEL 7
REMARK VINA RESULT:      -6.5      3.927      4.762
REMARK  Name = min_compound981.pdb
REMARK  7 active torsions:
REMARK  status: ('A' for Active; 'I' for Inactive)
REMARK    1  A    between atoms: _3  and  _7
REMARK    2  A    between atoms: _6  and  _19
REMARK    3  A    between atoms: _8  and  _9
REMARK    4  A    between atoms: _8  and  _10
REMARK    5  A    between atoms: _9  and  _13
REMARK    6  A    between atoms: _10  and  _11
REMARK    7  A    between atoms: _19  and  _20
REMARK                            x       y       z     vdW  Elec       q    Type
REMARK                         _______ _______ _______ _____ _____    ______ ____
ROOT
ATOM      1  C   UNL     1     -13.083   4.314 -18.455  0.00  0.00    +0.016 C 
ATOM      2  C   UNL     1     -13.332   2.857 -18.379  0.00  0.00    +0.014 C 
ENDROOT
BRANCH   1   4
ATOM      3  C   UNL     1     -11.755   6.193 -19.326  0.00  0.00    +0.008 A 
ATOM      4  C   UNL     1     -12.805   5.280 -19.537  0.00  0.00    -0.025 A 
ATOM      5  C   UNL     1     -13.471   5.342 -20.764  0.00  0.00    +0.008 A 
ATOM      6  C   UNL     1     -13.125   6.291 -21.737  0.00  0.00    +0.005 A 
ATOM      7  C   UNL     1     -12.086   7.188 -21.503  0.00  0.00    -0.034 A 
ATOM      8  C   UNL     1     -11.396   7.138 -20.297  0.00  0.00    +0.005 A 
BRANCH   7   9
ATOM      9  C   UNL     1     -11.728   8.149 -22.499  0.00  0.00    +0.113 C 
BRANCH   9  10
ATOM     10  N   UNL     1     -11.363   9.125 -23.513  0.00  0.00    -0.326 NA
ATOM     11  H   UNL     1     -10.535   8.802 -24.014  0.00  0.00    +0.119 HD
ATOM     12  H   UNL     1     -12.135   9.237 -24.171  0.00  0.00    +0.119 HD
ENDBRANCH   9  10
ENDBRANCH   7   9
ENDBRANCH   1   4
BRANCH   2  13
ATOM     13  C   UNL     1     -13.497   2.258 -17.153  0.00  0.00    +0.190 C 
ATOM     14  O   UNL     1     -14.539   2.323 -16.417  0.00  0.00    -0.287 OA
BRANCH  13  15
ATOM     15  C   UNL     1     -12.359   1.406 -16.621  0.00  0.00    +0.022 A 
ATOM     16  C   UNL     1     -12.205   0.042 -16.911  0.00  0.00    +0.012 A 
ATOM     17  C   UNL     1     -11.093  -0.672 -16.453  0.00  0.00    +0.001 A 
ATOM     18  C   UNL     1     -10.082  -0.024 -15.737  0.00  0.00    +0.000 A 
ATOM     19  C   UNL     1     -10.191   1.336 -15.473  0.00  0.00    +0.001 A 
ATOM     20  C   UNL     1     -11.320   2.036 -15.905  0.00  0.00    +0.012 A 
ENDBRANCH  13  15
ENDBRANCH   2  13
BRANCH   2  21
ATOM     21  C   UNL     1     -13.308   2.131 -19.691  0.00  0.00    +0.117 C 
BRANCH  21  22
ATOM     22  N   UNL     1     -13.284   1.404 -21.003  0.00  0.00    -0.326 NA
ATOM     23  H   UNL     1     -12.327   1.372 -21.357  0.00  0.00    +0.119 HD
ATOM     24  H   UNL     1     -13.630   0.453 -20.872  0.00  0.00    +0.119 HD
ENDBRANCH  21  22
ENDBRANCH   2  21
TORSDOF 7
ENDMDL
MODEL 8
REMARK VINA RESULT:      -6.4      4.263      5.883
REMARK  Name = min_compound981.pdb
REMARK  7 active torsions:
REMARK  status: ('A' for Active; 'I' for Inactive)
REMARK    1  A    between atoms: _3  and  _7
REMARK    2  A    between atoms: _6  and  _19
REMARK    3  A    between atoms: _8  and  _9
REMARK    4  A    between atoms: _8  and  _10
REMARK    5  A    between atoms: _9  and  _13
REMARK    6  A    between atoms: _10  and  _11
REMARK    7  A    between atoms: _19  and  _20
REMARK                            x       y       z     vdW  Elec       q    Type
REMARK                         _______ _______ _______ _____ _____    ______ ____
ROOT
ATOM      1  C   UNL     1     -13.057   2.947 -18.791  0.00  0.00    +0.016 C 
ATOM      2  C   UNL     1     -13.762   3.025 -17.493  0.00  0.00    +0.014 C 
ENDROOT
BRANCH   1   4
ATOM      3  C   UNL     1     -13.563   1.792 -20.904  0.00  0.00    +0.008 A 
ATOM      4  C   UNL     1     -13.454   3.013 -20.212  0.00  0.00    -0.025 A 
ATOM      5  C   UNL     1     -13.766   4.179 -20.916  0.00  0.00    +0.008 A 
ATOM      6  C   UNL     1     -14.147   4.138 -22.266  0.00  0.00    +0.005 A 
ATOM      7  C   UNL     1     -14.242   2.919 -22.931  0.00  0.00    -0.034 A 
ATOM      8  C   UNL     1     -13.953   1.742 -22.249  0.00  0.00    +0.005 A 
BRANCH   7   9
ATOM      9  C   UNL     1     -14.639   2.878 -24.304  0.00  0.00    +0.113 C 
BRANCH   9  10
ATOM     10  N   UNL     1     -15.044   2.833 -25.700  0.00  0.00    -0.326 NA
ATOM     11  H   UNL     1     -15.544   3.690 -25.936  0.00  0.00    +0.119 HD
ATOM     12  H   UNL     1     -14.217   2.749 -26.291  0.00  0.00    +0.119 HD
ENDBRANCH   9  10
ENDBRANCH   7   9
ENDBRANCH   1   4
BRANCH   2  13
ATOM     13  C   UNL     1     -13.058   2.855 -16.325  0.00  0.00    +0.190 C 
ATOM     14  O   UNL     1     -13.166   3.567 -15.270  0.00  0.00    -0.287 OA
BRANCH  13  15
ATOM     15  C   UNL     1     -12.080   1.697 -16.248  0.00  0.00    +0.022 A 
ATOM     16  C   UNL     1     -10.804   1.789 -15.670  0.00  0.00    +0.012 A 
ATOM     17  C   UNL     1      -9.978   0.666 -15.560  0.00  0.00    +0.001 A 
ATOM     18  C   UNL     1     -10.430  -0.588 -15.980  0.00  0.00    +0.000 A 
ATOM     19  C   UNL     1     -11.705  -0.714 -16.517  0.00  0.00    +0.001 A 
ATOM     20  C   UNL     1     -12.513   0.418 -16.655  0.00  0.00    +0.012 A 
ENDBRANCH  13  15
ENDBRANCH   2  13
BRANCH   2  21
ATOM     21  C   UNL     1     -15.247   3.217 -17.578  0.00  0.00    +0.117 C 
BRANCH  21  22
ATOM     22  N   UNL     1     -16.733   3.408 -17.662  0.00  0.00    -0.326 NA
ATOM     23  H   UNL     1     -17.074   3.809 -16.788  0.00  0.00    +0.119 HD
ATOM     24  H   UNL     1     -16.951   4.039 -18.434  0.00  0.00    +0.119 HD
ENDBRANCH  21  22
ENDBRANCH   2  21
TORSDOF 7
ENDMDL
MODEL 9
REMARK VINA RESULT:      -6.4      3.502      7.409
REMARK  Name = min_compound981.pdb
REMARK  7 active torsions:
REMARK  status: ('A' for Active; 'I' for Inactive)
REMARK    1  A    between atoms: _3  and  _7
REMARK    2  A    between atoms: _6  and  _19
REMARK    3  A    between atoms: _8  and  _9
REMARK    4  A    between atoms: _8  and  _10
REMARK    5  A    between atoms: _9  and  _13
REMARK    6  A    between atoms: _10  and  _11
REMARK    7  A    between atoms: _19  and  _20
REMARK                            x       y       z     vdW  Elec       q    Type
REMARK                         _______ _______ _______ _____ _____    ______ ____
ROOT
ATOM      1  C   UNL     1     -14.075   3.850 -15.017  0.00  0.00    +0.016 C 
ATOM      2  C   UNL     1     -15.335   4.470 -15.482  0.00  0.00    +0.014 C 
ENDROOT
BRANCH   1   4
ATOM      3  C   UNL     1     -11.707   3.418 -15.526  0.00  0.00    +0.008 A 
ATOM      4  C   UNL     1     -13.042   2.983 -15.619  0.00  0.00    -0.025 A 
ATOM      5  C   UNL     1     -13.273   1.753 -16.240  0.00  0.00    +0.008 A 
ATOM      6  C   UNL     1     -12.221   0.992 -16.772  0.00  0.00    +0.005 A 
ATOM      7  C   UNL     1     -10.909   1.447 -16.674  0.00  0.00    -0.034 A 
ATOM      8  C   UNL     1     -10.649   2.660 -16.046  0.00  0.00    +0.005 A 
BRANCH   7   9
ATOM      9  C   UNL     1      -9.836   0.668 -17.209  0.00  0.00    +0.113 C 
BRANCH   9  10
ATOM     10  N   UNL     1      -8.745  -0.126 -17.751  0.00  0.00    -0.326 NA
ATOM     11  H   UNL     1      -7.860   0.205 -17.367  0.00  0.00    +0.119 HD
ATOM     12  H   UNL     1      -8.879  -1.105 -17.498  0.00  0.00    +0.119 HD
ENDBRANCH   9  10
ENDBRANCH   7   9
ENDBRANCH   1   4
BRANCH   2  13
ATOM     13  C   UNL     1     -16.105   5.190 -14.600  0.00  0.00    +0.190 C 
ATOM     14  O   UNL     1     -16.740   6.268 -14.860  0.00  0.00    -0.287 OA
BRANCH  13  15
ATOM     15  C   UNL     1     -16.258   4.653 -13.188  0.00  0.00    +0.022 A 
ATOM     16  C   UNL     1     -17.088   3.574 -12.849  0.00  0.00    +0.012 A 
ATOM     17  C   UNL     1     -17.128   3.077 -11.543  0.00  0.00    +0.001 A 
ATOM     18  C   UNL     1     -16.297   3.614 -10.556  0.00  0.00    +0.000 A 
ATOM     19  C   UNL     1     -15.435   4.656 -10.876  0.00  0.00    +0.001 A 
ATOM     20  C   UNL     1     -15.424   5.171 -12.174  0.00  0.00    +0.012 A 
ENDBRANCH  13  15
ENDBRANCH   2  13
BRANCH   2  21
ATOM     21  C   UNL     1     -15.706   4.182 -16.907  0.00  0.00    +0.117 C 
BRANCH  21  22
ATOM     22  N   UNL     1     -16.078   3.895 -18.331  0.00  0.00    -0.326 NA
ATOM     23  H   UNL     1     -16.730   4.606 -18.663  0.00  0.00    +0.119 HD
ATOM     24  H   UNL     1     -15.238   3.906 -18.910  0.00  0.00    +0.119 HD
ENDBRANCH  21  22
ENDBRANCH   2  21
TORSDOF 7
ENDMDL
