MODEL 1
REMARK VINA RESULT:      -8.0      0.000      0.000
REMARK  Name = min_compound982.pdb
REMARK  0 active torsions:
REMARK  status: ('A' for Active; 'I' for Inactive)
REMARK                            x       y       z     vdW  Elec       q    Type
REMARK                         _______ _______ _______ _____ _____    ______ ____
ROOT
ATOM      1  C   UNL     1     -12.333   5.537 -18.088  0.00  0.00    +0.040 C 
ATOM      2  C   UNL     1     -13.486   6.210 -17.400  0.00  0.00    -0.040 A 
ATOM      3  C   UNL     1     -13.712   7.565 -17.744  0.00  0.00    +0.004 A 
ATOM      4  C   UNL     1     -14.718   8.313 -17.148  0.00  0.00    +0.000 A 
ATOM      5  C   UNL     1     -15.530   7.716 -16.206  0.00  0.00    +0.000 A 
ATOM      6  C   UNL     1     -15.330   6.373 -15.873  0.00  0.00    +0.008 A 
ATOM      7  C   UNL     1     -14.300   5.571 -16.443  0.00  0.00    +0.004 A 
ATOM      8  C   UNL     1     -14.222   4.078 -16.016  0.00  0.00    +0.168 C 
ATOM      9  C   UNL     1     -14.376   3.924 -14.476  0.00  0.00    +0.099 C 
ATOM     10  C   UNL     1     -15.768   3.430 -14.320  0.00  0.00    +0.034 C 
ATOM     11  C   UNL     1     -16.457   3.261 -13.185  0.00  0.00    +0.019 C 
ATOM     12  C   UNL     1     -16.344   3.160 -15.650  0.00  0.00    +0.336 C 
ATOM     13  O   UNL     1     -17.445   2.690 -15.870  0.00  0.00    -0.245 OA
ATOM     14  O   UNL     1     -15.431   3.505 -16.591  0.00  0.00    -0.445 OA
ATOM     15  C   UNL     1     -13.068   3.128 -16.436  0.00  0.00    +0.004 A 
ATOM     16  C   UNL     1     -13.301   1.727 -16.337  0.00  0.00    +0.008 A 
ATOM     17  C   UNL     1     -12.300   0.775 -16.542  0.00  0.00    +0.000 A 
ATOM     18  C   UNL     1     -11.018   1.188 -16.857  0.00  0.00    +0.000 A 
ATOM     19  C   UNL     1     -10.755   2.546 -16.987  0.00  0.00    +0.004 A 
ATOM     20  C   UNL     1     -11.763   3.518 -16.794  0.00  0.00    -0.040 A 
ATOM     21  C   UNL     1     -11.384   4.946 -17.059  0.00  0.00    +0.040 C 
ENDROOT
TORSDOF 0
ENDMDL
MODEL 2
REMARK VINA RESULT:      -7.6     12.753     14.590
REMARK  Name = min_compound982.pdb
REMARK  0 active torsions:
REMARK  status: ('A' for Active; 'I' for Inactive)
REMARK                            x       y       z     vdW  Elec       q    Type
REMARK                         _______ _______ _______ _____ _____    ______ ____
ROOT
ATOM      1  C   UNL     1     -17.206   1.801  -4.335  0.00  0.00    +0.040 C 
ATOM      2  C   UNL     1     -15.791   1.565  -3.886  0.00  0.00    -0.040 A 
ATOM      3  C   UNL     1     -14.914   2.673  -3.982  0.00  0.00    +0.004 A 
ATOM      4  C   UNL     1     -13.571   2.574  -3.641  0.00  0.00    +0.000 A 
ATOM      5  C   UNL     1     -13.083   1.368  -3.181  0.00  0.00    +0.000 A 
ATOM      6  C   UNL     1     -13.945   0.274  -3.062  0.00  0.00    +0.008 A 
ATOM      7  C   UNL     1     -15.323   0.321  -3.417  0.00  0.00    +0.004 A 
ATOM      8  C   UNL     1     -16.176  -0.958  -3.189  0.00  0.00    +0.168 C 
ATOM      9  C   UNL     1     -15.430  -2.229  -3.685  0.00  0.00    +0.099 C 
ATOM     10  C   UNL     1     -14.958  -2.862  -2.428  0.00  0.00    +0.034 C 
ATOM     11  C   UNL     1     -14.144  -3.915  -2.293  0.00  0.00    +0.019 C 
ATOM     12  C   UNL     1     -15.507  -2.126  -1.274  0.00  0.00    +0.336 C 
ATOM     13  O   UNL     1     -15.361  -2.422  -0.102  0.00  0.00    -0.245 OA
ATOM     14  O   UNL     1     -16.222  -1.071  -1.737  0.00  0.00    -0.445 OA
ATOM     15  C   UNL     1     -17.647  -1.102  -3.666  0.00  0.00    +0.004 A 
ATOM     16  C   UNL     1     -18.437  -2.120  -3.063  0.00  0.00    +0.008 A 
ATOM     17  C   UNL     1     -19.721  -2.447  -3.505  0.00  0.00    +0.000 A 
ATOM     18  C   UNL     1     -20.269  -1.763  -4.575  0.00  0.00    +0.000 A 
ATOM     19  C   UNL     1     -19.540  -0.745  -5.177  0.00  0.00    +0.004 A 
ATOM     20  C   UNL     1     -18.245  -0.398  -4.729  0.00  0.00    -0.040 A 
ATOM     21  C   UNL     1     -17.595   0.782  -5.392  0.00  0.00    +0.040 C 
ENDROOT
TORSDOF 0
ENDMDL
MODEL 3
REMARK VINA RESULT:      -7.6      1.277      4.615
REMARK  Name = min_compound982.pdb
REMARK  0 active torsions:
REMARK  status: ('A' for Active; 'I' for Inactive)
REMARK                            x       y       z     vdW  Elec       q    Type
REMARK                         _______ _______ _______ _____ _____    ______ ____
ROOT
ATOM      1  C   UNL     1     -11.489   5.776 -17.344  0.00  0.00    +0.040 C 
ATOM      2  C   UNL     1     -11.618   4.361 -16.856  0.00  0.00    -0.040 A 
ATOM      3  C   UNL     1     -10.464   3.550 -16.983  0.00  0.00    +0.004 A 
ATOM      4  C   UNL     1     -10.466   2.212 -16.611  0.00  0.00    +0.000 A 
ATOM      5  C   UNL     1     -11.619   1.662 -16.088  0.00  0.00    +0.000 A 
ATOM      6  C   UNL     1     -12.758   2.459 -15.939  0.00  0.00    +0.008 A 
ATOM      7  C   UNL     1     -12.810   3.829 -16.325  0.00  0.00    +0.004 A 
ATOM      8  C   UNL     1     -14.129   4.608 -16.058  0.00  0.00    +0.168 C 
ATOM      9  C   UNL     1     -15.372   3.776 -16.483  0.00  0.00    +0.099 C 
ATOM     10  C   UNL     1     -15.921   3.296 -15.190  0.00  0.00    +0.034 C 
ATOM     11  C   UNL     1     -16.916   2.422 -14.993  0.00  0.00    +0.019 C 
ATOM     12  C   UNL     1     -15.172   3.915 -14.081  0.00  0.00    +0.336 C 
ATOM     13  O   UNL     1     -15.409   3.777 -12.894  0.00  0.00    -0.245 OA
ATOM     14  O   UNL     1     -14.183   4.680 -14.604  0.00  0.00    -0.445 OA
ATOM     15  C   UNL     1     -14.382   6.057 -16.559  0.00  0.00    +0.004 A 
ATOM     16  C   UNL     1     -15.421   6.798 -15.927  0.00  0.00    +0.008 A 
ATOM     17  C   UNL     1     -15.844   8.049 -16.381  0.00  0.00    +0.000 A 
ATOM     18  C   UNL     1     -15.241   8.613 -17.491  0.00  0.00    +0.000 A 
ATOM     19  C   UNL     1     -14.207   7.932 -18.122  0.00  0.00    +0.004 A 
ATOM     20  C   UNL     1     -13.762   6.671 -17.663  0.00  0.00    -0.040 A 
ATOM     21  C   UNL     1     -12.573   6.079 -18.363  0.00  0.00    +0.040 C 
ENDROOT
TORSDOF 0
ENDMDL
MODEL 4
REMARK VINA RESULT:      -7.5     12.465     14.467
REMARK  Name = min_compound982.pdb
REMARK  0 active torsions:
REMARK  status: ('A' for Active; 'I' for Inactive)
REMARK                            x       y       z     vdW  Elec       q    Type
REMARK                         _______ _______ _______ _____ _____    ______ ____
ROOT
ATOM      1  C   UNL     1     -17.512   0.963  -5.478  0.00  0.00    +0.040 C 
ATOM      2  C   UNL     1     -18.212  -0.224  -4.880  0.00  0.00    -0.040 A 
ATOM      3  C   UNL     1     -19.481  -0.540  -5.425  0.00  0.00    +0.004 A 
ATOM      4  C   UNL     1     -20.249  -1.585  -4.932  0.00  0.00    +0.000 A 
ATOM      5  C   UNL     1     -19.756  -2.349  -3.893  0.00  0.00    +0.000 A 
ATOM      6  C   UNL     1     -18.496  -2.060  -3.361  0.00  0.00    +0.008 A 
ATOM      7  C   UNL     1     -17.681  -0.986  -3.820  0.00  0.00    +0.004 A 
ATOM      8  C   UNL     1     -16.281  -0.809  -3.169  0.00  0.00    +0.168 C 
ATOM      9  C   UNL     1     -16.358  -0.938  -1.621  0.00  0.00    +0.099 C 
ATOM     10  C   UNL     1     -15.810  -2.294  -1.363  0.00  0.00    +0.034 C 
ATOM     11  C   UNL     1     -15.777  -2.959  -0.203  0.00  0.00    +0.019 C 
ATOM     12  C   UNL     1     -15.301  -2.864  -2.624  0.00  0.00    +0.336 C 
ATOM     13  O   UNL     1     -14.736  -3.935  -2.748  0.00  0.00    -0.245 OA
ATOM     14  O   UNL     1     -15.552  -1.984  -3.625  0.00  0.00    -0.445 OA
ATOM     15  C   UNL     1     -15.349   0.400  -3.460  0.00  0.00    +0.004 A 
ATOM     16  C   UNL     1     -13.969   0.258  -3.141  0.00  0.00    +0.008 A 
ATOM     17  C   UNL     1     -13.061   1.316  -3.216  0.00  0.00    +0.000 A 
ATOM     18  C   UNL     1     -13.498   2.565  -3.616  0.00  0.00    +0.000 A 
ATOM     19  C   UNL     1     -14.833   2.740  -3.959  0.00  0.00    +0.004 A 
ATOM     20  C   UNL     1     -15.759   1.673  -3.899  0.00  0.00    -0.040 A 
ATOM     21  C   UNL     1     -17.149   1.958  -4.389  0.00  0.00    +0.040 C 
ENDROOT
TORSDOF 0
ENDMDL
MODEL 5
REMARK VINA RESULT:      -7.3      8.526     12.041
REMARK  Name = min_compound982.pdb
REMARK  0 active torsions:
REMARK  status: ('A' for Active; 'I' for Inactive)
REMARK                            x       y       z     vdW  Elec       q    Type
REMARK                         _______ _______ _______ _____ _____    ______ ____
ROOT
ATOM      1  C   UNL     1     -14.992  -0.185  -7.153  0.00  0.00    +0.040 C 
ATOM      2  C   UNL     1     -15.129  -0.185  -5.657  0.00  0.00    -0.040 A 
ATOM      3  C   UNL     1     -14.479  -1.240  -4.971  0.00  0.00    +0.004 A 
ATOM      4  C   UNL     1     -14.565  -1.379  -3.592  0.00  0.00    +0.000 A 
ATOM      5  C   UNL     1     -15.290  -0.454  -2.869  0.00  0.00    +0.000 A 
ATOM      6  C   UNL     1     -15.919   0.604  -3.533  0.00  0.00    +0.008 A 
ATOM      7  C   UNL     1     -15.875   0.776  -4.946  0.00  0.00    +0.004 A 
ATOM      8  C   UNL     1     -16.580   2.025  -5.546  0.00  0.00    +0.168 C 
ATOM      9  C   UNL     1     -17.987   2.234  -4.918  0.00  0.00    +0.099 C 
ATOM     10  C   UNL     1     -17.777   3.362  -3.976  0.00  0.00    +0.034 C 
ATOM     11  C   UNL     1     -18.639   3.855  -3.079  0.00  0.00    +0.019 C 
ATOM     12  C   UNL     1     -16.409   3.888  -4.140  0.00  0.00    +0.336 C 
ATOM     13  O   UNL     1     -15.939   4.850  -3.560  0.00  0.00    -0.245 OA
ATOM     14  O   UNL     1     -15.765   3.131  -5.062  0.00  0.00    -0.445 OA
ATOM     15  C   UNL     1     -16.744   2.263  -7.072  0.00  0.00    +0.004 A 
ATOM     16  C   UNL     1     -17.027   3.590  -7.504  0.00  0.00    +0.008 A 
ATOM     17  C   UNL     1     -17.341   3.906  -8.827  0.00  0.00    +0.000 A 
ATOM     18  C   UNL     1     -17.384   2.903  -9.778  0.00  0.00    +0.000 A 
ATOM     19  C   UNL     1     -17.090   1.598  -9.403  0.00  0.00    +0.004 A 
ATOM     20  C   UNL     1     -16.759   1.268  -8.068  0.00  0.00    -0.040 A 
ATOM     21  C   UNL     1     -16.364  -0.156  -7.803  0.00  0.00    +0.040 C 
ENDROOT
TORSDOF 0
ENDMDL
MODEL 6
REMARK VINA RESULT:      -7.3      9.962     13.054
REMARK  Name = min_compound982.pdb
REMARK  0 active torsions:
REMARK  status: ('A' for Active; 'I' for Inactive)
REMARK                            x       y       z     vdW  Elec       q    Type
REMARK                         _______ _______ _______ _____ _____    ______ ____
ROOT
ATOM      1  C   UNL     1     -13.991  -0.271  -5.387  0.00  0.00    +0.040 C 
ATOM      2  C   UNL     1     -15.066   0.474  -6.126  0.00  0.00    -0.040 A 
ATOM      3  C   UNL     1     -14.655   1.169  -7.290  0.00  0.00    +0.004 A 
ATOM      4  C   UNL     1     -15.542   1.932  -8.037  0.00  0.00    +0.000 A 
ATOM      5  C   UNL     1     -16.863   2.001  -7.645  0.00  0.00    +0.000 A 
ATOM      6  C   UNL     1     -17.285   1.302  -6.510  0.00  0.00    +0.008 A 
ATOM      7  C   UNL     1     -16.409   0.524  -5.701  0.00  0.00    +0.004 A 
ATOM      8  C   UNL     1     -17.023  -0.239  -4.494  0.00  0.00    +0.168 C 
ATOM      9  C   UNL     1     -17.999   0.666  -3.692  0.00  0.00    +0.099 C 
ATOM     10  C   UNL     1     -19.339   0.176  -4.107  0.00  0.00    +0.034 C 
ATOM     11  C   UNL     1     -20.533   0.704  -3.815  0.00  0.00    +0.019 C 
ATOM     12  C   UNL     1     -19.181  -1.019  -4.956  0.00  0.00    +0.336 C 
ATOM     13  O   UNL     1     -20.084  -1.696  -5.411  0.00  0.00    -0.245 OA
ATOM     14  O   UNL     1     -17.856  -1.250  -5.130  0.00  0.00    -0.445 OA
ATOM     15  C   UNL     1     -16.171  -1.001  -3.441  0.00  0.00    +0.004 A 
ATOM     16  C   UNL     1     -16.832  -1.975  -2.642  0.00  0.00    +0.008 A 
ATOM     17  C   UNL     1     -16.216  -2.619  -1.566  0.00  0.00    +0.000 A 
ATOM     18  C   UNL     1     -14.906  -2.313  -1.246  0.00  0.00    +0.000 A 
ATOM     19  C   UNL     1     -14.217  -1.385  -2.017  0.00  0.00    +0.004 A 
ATOM     20  C   UNL     1     -14.827  -0.736  -3.116  0.00  0.00    -0.040 A 
ATOM     21  C   UNL     1     -13.954   0.171  -3.933  0.00  0.00    +0.040 C 
ENDROOT
TORSDOF 0
ENDMDL
MODEL 7
REMARK VINA RESULT:      -7.3      8.888     12.624
REMARK  Name = min_compound982.pdb
REMARK  0 active torsions:
REMARK  status: ('A' for Active; 'I' for Inactive)
REMARK                            x       y       z     vdW  Elec       q    Type
REMARK                         _______ _______ _______ _____ _____    ______ ____
ROOT
ATOM      1  C   UNL     1     -17.686  -0.787  -3.395  0.00  0.00    +0.040 C 
ATOM      2  C   UNL     1     -18.517  -0.579  -4.629  0.00  0.00    -0.040 A 
ATOM      3  C   UNL     1     -19.743  -1.286  -4.681  0.00  0.00    +0.004 A 
ATOM      4  C   UNL     1     -20.582  -1.216  -5.785  0.00  0.00    +0.000 A 
ATOM      5  C   UNL     1     -20.220  -0.421  -6.854  0.00  0.00    +0.000 A 
ATOM      6  C   UNL     1     -19.022   0.298  -6.805  0.00  0.00    +0.008 A 
ATOM      7  C   UNL     1     -18.120   0.241  -5.704  0.00  0.00    +0.004 A 
ATOM      8  C   UNL     1     -16.846   1.130  -5.763  0.00  0.00    +0.168 C 
ATOM      9  C   UNL     1     -16.162   1.043  -7.157  0.00  0.00    +0.099 C 
ATOM     10  C   UNL     1     -16.541   2.324  -7.805  0.00  0.00    +0.034 C 
ATOM     11  C   UNL     1     -16.325   2.699  -9.071  0.00  0.00    +0.019 C 
ATOM     12  C   UNL     1     -17.252   3.173  -6.832  0.00  0.00    +0.336 C 
ATOM     13  O   UNL     1     -17.645   4.309  -7.027  0.00  0.00    -0.245 OA
ATOM     14  O   UNL     1     -17.381   2.482  -5.672  0.00  0.00    -0.445 OA
ATOM     15  C   UNL     1     -15.705   1.060  -4.712  0.00  0.00    +0.004 A 
ATOM     16  C   UNL     1     -14.814   2.168  -4.634  0.00  0.00    +0.008 A 
ATOM     17  C   UNL     1     -13.666   2.164  -3.839  0.00  0.00    +0.000 A 
ATOM     18  C   UNL     1     -13.362   1.046  -3.084  0.00  0.00    +0.000 A 
ATOM     19  C   UNL     1     -14.219  -0.047  -3.113  0.00  0.00    +0.004 A 
ATOM     20  C   UNL     1     -15.390  -0.050  -3.904  0.00  0.00    -0.040 A 
ATOM     21  C   UNL     1     -16.289  -1.245  -3.778  0.00  0.00    +0.040 C 
ENDROOT
TORSDOF 0
ENDMDL
MODEL 8
REMARK VINA RESULT:      -7.2      1.715      4.432
REMARK  Name = min_compound982.pdb
REMARK  0 active torsions:
REMARK  status: ('A' for Active; 'I' for Inactive)
REMARK                            x       y       z     vdW  Elec       q    Type
REMARK                         _______ _______ _______ _____ _____    ______ ____
ROOT
ATOM      1  C   UNL     1     -14.548   7.281 -16.497  0.00  0.00    +0.040 C 
ATOM      2  C   UNL     1     -13.536   6.651 -17.411  0.00  0.00    -0.040 A 
ATOM      3  C   UNL     1     -12.942   7.508 -18.369  0.00  0.00    +0.004 A 
ATOM      4  C   UNL     1     -12.026   7.039 -19.302  0.00  0.00    +0.000 A 
ATOM      5  C   UNL     1     -11.673   5.705 -19.284  0.00  0.00    +0.000 A 
ATOM      6  C   UNL     1     -12.237   4.854 -18.329  0.00  0.00    +0.008 A 
ATOM      7  C   UNL     1     -13.195   5.284 -17.367  0.00  0.00    +0.004 A 
ATOM      8  C   UNL     1     -13.705   4.240 -16.334  0.00  0.00    +0.168 C 
ATOM      9  C   UNL     1     -14.050   2.889 -17.021  0.00  0.00    +0.099 C 
ATOM     10  C   UNL     1     -12.902   2.019 -16.662  0.00  0.00    +0.034 C 
ATOM     11  C   UNL     1     -12.631   0.787 -17.111  0.00  0.00    +0.019 C 
ATOM     12  C   UNL     1     -12.026   2.731 -15.713  0.00  0.00    +0.336 C 
ATOM     13  O   UNL     1     -11.032   2.276 -15.177  0.00  0.00    -0.245 OA
ATOM     14  O   UNL     1     -12.526   3.976 -15.519  0.00  0.00    -0.445 OA
ATOM     15  C   UNL     1     -14.854   4.523 -15.327  0.00  0.00    +0.004 A 
ATOM     16  C   UNL     1     -14.956   3.672 -14.191  0.00  0.00    +0.008 A 
ATOM     17  C   UNL     1     -16.026   3.728 -13.296  0.00  0.00    +0.000 A 
ATOM     18  C   UNL     1     -17.042   4.644 -13.500  0.00  0.00    +0.000 A 
ATOM     19  C   UNL     1     -16.967   5.510 -14.585  0.00  0.00    +0.004 A 
ATOM     20  C   UNL     1     -15.882   5.471 -15.491  0.00  0.00    -0.040 A 
ATOM     21  C   UNL     1     -15.860   6.519 -16.564  0.00  0.00    +0.040 C 
ENDROOT
TORSDOF 0
ENDMDL
MODEL 9
REMARK VINA RESULT:      -7.1     12.675     14.508
REMARK  Name = min_compound982.pdb
REMARK  0 active torsions:
REMARK  status: ('A' for Active; 'I' for Inactive)
REMARK                            x       y       z     vdW  Elec       q    Type
REMARK                         _______ _______ _______ _____ _____    ______ ____
ROOT
ATOM      1  C   UNL     1     -14.159  -1.362  -2.704  0.00  0.00    +0.040 C 
ATOM      2  C   UNL     1     -14.487   0.037  -3.144  0.00  0.00    -0.040 A 
ATOM      3  C   UNL     1     -13.389   0.921  -3.278  0.00  0.00    +0.004 A 
ATOM      4  C   UNL     1     -13.561   2.252  -3.634  0.00  0.00    +0.000 A 
ATOM      5  C   UNL     1     -14.836   2.722  -3.879  0.00  0.00    +0.000 A 
ATOM      6  C   UNL     1     -15.925   1.853  -3.770  0.00  0.00    +0.008 A 
ATOM      7  C   UNL     1     -15.800   0.486  -3.389  0.00  0.00    +0.004 A 
ATOM      8  C   UNL     1     -17.092  -0.378  -3.353  0.00  0.00    +0.168 C 
ATOM      9  C   UNL     1     -18.257   0.378  -2.654  0.00  0.00    +0.099 C 
ATOM     10  C   UNL     1     -19.114   0.809  -3.787  0.00  0.00    +0.034 C 
ATOM     11  C   UNL     1     -20.182   1.615  -3.750  0.00  0.00    +0.019 C 
ATOM     12  C   UNL     1     -18.598   0.227  -5.040  0.00  0.00    +0.336 C 
ATOM     13  O   UNL     1     -19.105   0.337  -6.141  0.00  0.00    -0.245 OA
ATOM     14  O   UNL     1     -17.469  -0.469  -4.757  0.00  0.00    -0.445 OA
ATOM     15  C   UNL     1     -17.132  -1.835  -2.814  0.00  0.00    +0.004 A 
ATOM     16  C   UNL     1     -18.236  -2.647  -3.198  0.00  0.00    +0.008 A 
ATOM     17  C   UNL     1     -18.464  -3.917  -2.665  0.00  0.00    +0.000 A 
ATOM     18  C   UNL     1     -17.591  -4.430  -1.723  0.00  0.00    +0.000 A 
ATOM     19  C   UNL     1     -16.487  -3.679  -1.340  0.00  0.00    +0.004 A 
ATOM     20  C   UNL     1     -16.239  -2.397  -1.882  0.00  0.00    -0.040 A 
ATOM     21  C   UNL     1     -14.964  -1.723  -1.467  0.00  0.00    +0.040 C 
ENDROOT
TORSDOF 0
ENDMDL
