MODEL 1
REMARK VINA RESULT:      -6.9      0.000      0.000
REMARK  Name = min_compound978.pdb
REMARK  4 active torsions:
REMARK  status: ('A' for Active; 'I' for Inactive)
REMARK    1  A    between atoms: _13  and  _15
REMARK    2  A    between atoms: _15  and  _16
REMARK    3  A    between atoms: _16  and  _17
REMARK    4  A    between atoms: _17  and  _19
REMARK                            x       y       z     vdW  Elec       q    Type
REMARK                         _______ _______ _______ _____ _____    ______ ____
ROOT
ATOM      1  C   UNL     1     -10.025   1.168 -16.261  0.00  0.00    +0.017 A 
ATOM      2  C   UNL     1     -11.007   2.171 -16.326  0.00  0.00    +0.034 A 
ATOM      3  C   UNL     1     -12.375   1.846 -16.455  0.00  0.00    +0.048 A 
ATOM      4  N   UNL     1     -13.367   2.855 -16.477  0.00  0.00    -0.298 N 
ATOM      5  C   UNL     1     -13.114   4.170 -16.975  0.00  0.00    +0.048 A 
ATOM      6  C   UNL     1     -14.129   4.961 -17.556  0.00  0.00    +0.024 A 
ATOM      7  C   UNL     1     -13.874   6.240 -18.064  0.00  0.00    +0.002 A 
ATOM      8  C   UNL     1     -12.588   6.758 -18.029  0.00  0.00    +0.001 A 
ATOM      9  C   UNL     1     -11.560   5.997 -17.481  0.00  0.00    +0.017 A 
ATOM     10  C   UNL     1     -11.813   4.717 -16.955  0.00  0.00    +0.034 A 
ATOM     11  C   UNL     1     -12.685   0.482 -16.612  0.00  0.00    +0.024 A 
ATOM     12  C   UNL     1     -11.707  -0.517 -16.540  0.00  0.00    +0.002 A 
ATOM     13  S   UNL     1     -10.434   3.857 -16.221  0.00  0.00    -0.086 S 
ATOM     14  C   UNL     1     -10.376  -0.174 -16.354  0.00  0.00    +0.001 A 
ENDROOT
BRANCH   4  15
ATOM     15  C   UNL     1     -14.772   2.556 -16.098  0.00  0.00    +0.122 C 
BRANCH  15  16
ATOM     16  C   UNL     1     -15.236   3.141 -14.762  0.00  0.00    +0.139 C 
BRANCH  16  17
ATOM     17  C   UNL     1     -16.621   2.644 -14.443  0.00  0.00    +0.306 C 
ATOM     18  O   UNL     1     -17.119   2.489 -13.345  0.00  0.00    -0.251 OA
BRANCH  17  19
ATOM     19  O   UNL     1     -17.329   2.363 -15.557  0.00  0.00    -0.481 OA
ATOM     20  H   UNL     1     -17.881   3.161 -15.699  0.00  0.00    +0.295 HD
ENDBRANCH  17  19
ENDBRANCH  16  17
ENDBRANCH  15  16
ENDBRANCH   4  15
TORSDOF 4
ENDMDL
MODEL 2
REMARK VINA RESULT:      -6.5      3.184      5.740
REMARK  Name = min_compound978.pdb
REMARK  4 active torsions:
REMARK  status: ('A' for Active; 'I' for Inactive)
REMARK    1  A    between atoms: _13  and  _15
REMARK    2  A    between atoms: _15  and  _16
REMARK    3  A    between atoms: _16  and  _17
REMARK    4  A    between atoms: _17  and  _19
REMARK                            x       y       z     vdW  Elec       q    Type
REMARK                         _______ _______ _______ _____ _____    ______ ____
ROOT
ATOM      1  C   UNL     1     -11.879   6.205 -17.346  0.00  0.00    +0.017 A 
ATOM      2  C   UNL     1     -11.799   4.816 -17.538  0.00  0.00    +0.034 A 
ATOM      3  C   UNL     1     -12.852   4.101 -18.149  0.00  0.00    +0.048 A 
ATOM      4  N   UNL     1     -12.752   2.708 -18.380  0.00  0.00    -0.298 N 
ATOM      5  C   UNL     1     -11.976   1.845 -17.547  0.00  0.00    +0.048 A 
ATOM      6  C   UNL     1     -12.306   0.485 -17.361  0.00  0.00    +0.024 A 
ATOM      7  C   UNL     1     -11.559  -0.354 -16.527  0.00  0.00    +0.002 A 
ATOM      8  C   UNL     1     -10.470   0.150 -15.832  0.00  0.00    +0.001 A 
ATOM      9  C   UNL     1     -10.128   1.491 -15.977  0.00  0.00    +0.017 A 
ATOM     10  C   UNL     1     -10.866   2.335 -16.826  0.00  0.00    +0.034 A 
ATOM     11  C   UNL     1     -14.011   4.834 -18.462  0.00  0.00    +0.024 A 
ATOM     12  C   UNL     1     -14.088   6.220 -18.278  0.00  0.00    +0.002 A 
ATOM     13  S   UNL     1     -10.301   4.019 -16.985  0.00  0.00    -0.086 S 
ATOM     14  C   UNL     1     -13.016   6.908 -17.728  0.00  0.00    +0.001 A 
ENDROOT
BRANCH   4  15
ATOM     15  C   UNL     1     -13.561   2.048 -19.437  0.00  0.00    +0.122 C 
BRANCH  15  16
ATOM     16  C   UNL     1     -13.531   2.720 -20.811  0.00  0.00    +0.139 C 
BRANCH  16  17
ATOM     17  C   UNL     1     -13.720   1.684 -21.888  0.00  0.00    +0.306 C 
ATOM     18  O   UNL     1     -12.914   1.331 -22.727  0.00  0.00    -0.251 OA
BRANCH  17  19
ATOM     19  O   UNL     1     -14.949   1.129 -21.848  0.00  0.00    -0.481 OA
ATOM     20  H   UNL     1     -15.209   1.188 -20.904  0.00  0.00    +0.295 HD
ENDBRANCH  17  19
ENDBRANCH  16  17
ENDBRANCH  15  16
ENDBRANCH   4  15
TORSDOF 4
ENDMDL
MODEL 3
REMARK VINA RESULT:      -6.4      3.307      3.692
REMARK  Name = min_compound978.pdb
REMARK  4 active torsions:
REMARK  status: ('A' for Active; 'I' for Inactive)
REMARK    1  A    between atoms: _13  and  _15
REMARK    2  A    between atoms: _15  and  _16
REMARK    3  A    between atoms: _16  and  _17
REMARK    4  A    between atoms: _17  and  _19
REMARK                            x       y       z     vdW  Elec       q    Type
REMARK                         _______ _______ _______ _____ _____    ______ ____
ROOT
ATOM      1  C   UNL     1     -10.347   1.540 -15.717  0.00  0.00    +0.017 A 
ATOM      2  C   UNL     1     -11.141   2.418 -16.475  0.00  0.00    +0.034 A 
ATOM      3  C   UNL     1     -11.830   1.971 -17.624  0.00  0.00    +0.048 A 
ATOM      4  N   UNL     1     -12.663   2.845 -18.362  0.00  0.00    -0.298 N 
ATOM      5  C   UNL     1     -12.429   4.252 -18.432  0.00  0.00    +0.048 A 
ATOM      6  C   UNL     1     -12.812   5.022 -19.552  0.00  0.00    +0.024 A 
ATOM      7  C   UNL     1     -12.562   6.397 -19.629  0.00  0.00    +0.002 A 
ATOM      8  C   UNL     1     -11.897   7.040 -18.596  0.00  0.00    +0.001 A 
ATOM      9  C   UNL     1     -11.489   6.308 -17.485  0.00  0.00    +0.017 A 
ATOM     10  C   UNL     1     -11.752   4.929 -17.395  0.00  0.00    +0.034 A 
ATOM     11  C   UNL     1     -11.600   0.639 -18.016  0.00  0.00    +0.024 A 
ATOM     12  C   UNL     1     -10.815  -0.236 -17.257  0.00  0.00    +0.002 A 
ATOM     13  S   UNL     1     -11.240   4.104 -15.900  0.00  0.00    -0.086 S 
ATOM     14  C   UNL     1     -10.196   0.212 -16.099  0.00  0.00    +0.001 A 
ENDROOT
BRANCH   4  15
ATOM     15  C   UNL     1     -13.760   2.318 -19.214  0.00  0.00    +0.122 C 
BRANCH  15  16
ATOM     16  C   UNL     1     -13.370   1.961 -20.650  0.00  0.00    +0.139 C 
BRANCH  16  17
ATOM     17  C   UNL     1     -14.520   2.253 -21.577  0.00  0.00    +0.306 C 
ATOM     18  O   UNL     1     -14.799   3.316 -22.099  0.00  0.00    -0.251 OA
BRANCH  17  19
ATOM     19  O   UNL     1     -15.277   1.162 -21.808  0.00  0.00    -0.481 OA
ATOM     20  H   UNL     1     -15.093   0.935 -22.745  0.00  0.00    +0.295 HD
ENDBRANCH  17  19
ENDBRANCH  16  17
ENDBRANCH  15  16
ENDBRANCH   4  15
TORSDOF 4
ENDMDL
MODEL 4
REMARK VINA RESULT:      -6.2     11.665     13.776
REMARK  Name = min_compound978.pdb
REMARK  4 active torsions:
REMARK  status: ('A' for Active; 'I' for Inactive)
REMARK    1  A    between atoms: _13  and  _15
REMARK    2  A    between atoms: _15  and  _16
REMARK    3  A    between atoms: _16  and  _17
REMARK    4  A    between atoms: _17  and  _19
REMARK                            x       y       z     vdW  Elec       q    Type
REMARK                         _______ _______ _______ _____ _____    ______ ____
ROOT
ATOM      1  C   UNL     1     -16.655  -2.311  -1.676  0.00  0.00    +0.017 A 
ATOM      2  C   UNL     1     -16.509  -1.177  -2.493  0.00  0.00    +0.034 A 
ATOM      3  C   UNL     1     -15.235  -0.749  -2.925  0.00  0.00    +0.048 A 
ATOM      4  N   UNL     1     -15.092   0.368  -3.783  0.00  0.00    -0.298 N 
ATOM      5  C   UNL     1     -16.016   1.458  -3.785  0.00  0.00    +0.048 A 
ATOM      6  C   UNL     1     -15.628   2.771  -4.131  0.00  0.00    +0.024 A 
ATOM      7  C   UNL     1     -16.529   3.841  -4.111  0.00  0.00    +0.002 A 
ATOM      8  C   UNL     1     -17.843   3.635  -3.718  0.00  0.00    +0.001 A 
ATOM      9  C   UNL     1     -18.255   2.357  -3.352  0.00  0.00    +0.017 A 
ATOM     10  C   UNL     1     -17.358   1.275  -3.386  0.00  0.00    +0.034 A 
ATOM     11  C   UNL     1     -14.128  -1.455  -2.419  0.00  0.00    +0.024 A 
ATOM     12  C   UNL     1     -14.275  -2.589  -1.612  0.00  0.00    +0.002 A 
ATOM     13  S   UNL     1     -18.008  -0.329  -2.958  0.00  0.00    -0.086 S 
ATOM     14  C   UNL     1     -15.541  -3.024  -1.248  0.00  0.00    +0.001 A 
ENDROOT
BRANCH   4  15
ATOM     15  C   UNL     1     -13.890   0.525  -4.642  0.00  0.00    +0.122 C 
BRANCH  15  16
ATOM     16  C   UNL     1     -14.122   0.346  -6.144  0.00  0.00    +0.139 C 
BRANCH  16  17
ATOM     17  C   UNL     1     -15.055  -0.812  -6.381  0.00  0.00    +0.306 C 
ATOM     18  O   UNL     1     -16.210  -0.769  -6.758  0.00  0.00    -0.251 OA
BRANCH  17  19
ATOM     19  O   UNL     1     -14.466  -1.998  -6.125  0.00  0.00    -0.481 OA
ATOM     20  H   UNL     1     -14.032  -1.869  -5.255  0.00  0.00    +0.295 HD
ENDBRANCH  17  19
ENDBRANCH  16  17
ENDBRANCH  15  16
ENDBRANCH   4  15
TORSDOF 4
ENDMDL
MODEL 5
REMARK VINA RESULT:      -6.2      2.995      5.526
REMARK  Name = min_compound978.pdb
REMARK  4 active torsions:
REMARK  status: ('A' for Active; 'I' for Inactive)
REMARK    1  A    between atoms: _13  and  _15
REMARK    2  A    between atoms: _15  and  _16
REMARK    3  A    between atoms: _16  and  _17
REMARK    4  A    between atoms: _17  and  _19
REMARK                            x       y       z     vdW  Elec       q    Type
REMARK                         _______ _______ _______ _____ _____    ______ ____
ROOT
ATOM      1  C   UNL     1     -13.438   7.220 -17.936  0.00  0.00    +0.017 A 
ATOM      2  C   UNL     1     -13.795   6.116 -17.144  0.00  0.00    +0.034 A 
ATOM      3  C   UNL     1     -13.251   4.836 -17.388  0.00  0.00    +0.048 A 
ATOM      4  N   UNL     1     -13.579   3.734 -16.562  0.00  0.00    -0.298 N 
ATOM      5  C   UNL     1     -14.833   3.626 -15.887  0.00  0.00    +0.048 A 
ATOM      6  C   UNL     1     -15.418   2.377 -15.584  0.00  0.00    +0.024 A 
ATOM      7  C   UNL     1     -16.657   2.273 -14.942  0.00  0.00    +0.002 A 
ATOM      8  C   UNL     1     -17.362   3.419 -14.606  0.00  0.00    +0.001 A 
ATOM      9  C   UNL     1     -16.824   4.666 -14.907  0.00  0.00    +0.017 A 
ATOM     10  C   UNL     1     -15.572   4.777 -15.538  0.00  0.00    +0.034 A 
ATOM     11  C   UNL     1     -12.417   4.711 -18.514  0.00  0.00    +0.024 A 
ATOM     12  C   UNL     1     -12.056   5.812 -19.299  0.00  0.00    +0.002 A 
ATOM     13  S   UNL     1     -14.950   6.424 -15.819  0.00  0.00    -0.086 S 
ATOM     14  C   UNL     1     -12.559   7.071 -19.003  0.00  0.00    +0.001 A 
ENDROOT
BRANCH   4  15
ATOM     15  C   UNL     1     -12.674   2.559 -16.459  0.00  0.00    +0.122 C 
BRANCH  15  16
ATOM     16  C   UNL     1     -11.441   2.748 -15.572  0.00  0.00    +0.139 C 
BRANCH  16  17
ATOM     17  C   UNL     1     -10.383   1.747 -15.953  0.00  0.00    +0.306 C 
ATOM     18  O   UNL     1      -9.960   1.502 -17.066  0.00  0.00    -0.251 OA
BRANCH  17  19
ATOM     19  O   UNL     1      -9.897   1.090 -14.880  0.00  0.00    -0.481 OA
ATOM     20  H   UNL     1      -9.712   1.798 -14.227  0.00  0.00    +0.295 HD
ENDBRANCH  17  19
ENDBRANCH  16  17
ENDBRANCH  15  16
ENDBRANCH   4  15
TORSDOF 4
ENDMDL
MODEL 6
REMARK VINA RESULT:      -6.1     11.387     14.001
REMARK  Name = min_compound978.pdb
REMARK  4 active torsions:
REMARK  status: ('A' for Active; 'I' for Inactive)
REMARK    1  A    between atoms: _13  and  _15
REMARK    2  A    between atoms: _15  and  _16
REMARK    3  A    between atoms: _16  and  _17
REMARK    4  A    between atoms: _17  and  _19
REMARK                            x       y       z     vdW  Elec       q    Type
REMARK                         _______ _______ _______ _____ _____    ______ ____
ROOT
ATOM      1  C   UNL     1     -13.481   0.717  -3.094  0.00  0.00    +0.017 A 
ATOM      2  C   UNL     1     -14.618  -0.059  -3.380  0.00  0.00    +0.034 A 
ATOM      3  C   UNL     1     -15.760   0.514  -3.982  0.00  0.00    +0.048 A 
ATOM      4  N   UNL     1     -16.887  -0.277  -4.309  0.00  0.00    -0.298 N 
ATOM      5  C   UNL     1     -17.241  -1.451  -3.576  0.00  0.00    +0.048 A 
ATOM      6  C   UNL     1     -18.577  -1.891  -3.463  0.00  0.00    +0.024 A 
ATOM      7  C   UNL     1     -18.925  -3.028  -2.725  0.00  0.00    +0.002 A 
ATOM      8  C   UNL     1     -17.947  -3.746  -2.054  0.00  0.00    +0.001 A 
ATOM      9  C   UNL     1     -16.621  -3.329  -2.128  0.00  0.00    +0.017 A 
ATOM     10  C   UNL     1     -16.264  -2.197  -2.882  0.00  0.00    +0.034 A 
ATOM     11  C   UNL     1     -15.732   1.906  -4.187  0.00  0.00    +0.024 A 
ATOM     12  C   UNL     1     -14.597   2.676  -3.908  0.00  0.00    +0.002 A 
ATOM     13  S   UNL     1     -14.530  -1.790  -2.958  0.00  0.00    -0.086 S 
ATOM     14  C   UNL     1     -13.466   2.080  -3.370  0.00  0.00    +0.001 A 
ENDROOT
BRANCH   4  15
ATOM     15  C   UNL     1     -17.841   0.150  -5.364  0.00  0.00    +0.122 C 
BRANCH  15  16
ATOM     16  C   UNL     1     -17.723  -0.584  -6.702  0.00  0.00    +0.139 C 
BRANCH  16  17
ATOM     17  C   UNL     1     -16.281  -0.626  -7.133  0.00  0.00    +0.306 C 
ATOM     18  O   UNL     1     -15.622   0.281  -7.606  0.00  0.00    -0.251 OA
BRANCH  17  19
ATOM     19  O   UNL     1     -15.728  -1.840  -6.938  0.00  0.00    -0.481 OA
ATOM     20  H   UNL     1     -16.494  -2.430  -6.773  0.00  0.00    +0.295 HD
ENDBRANCH  17  19
ENDBRANCH  16  17
ENDBRANCH  15  16
ENDBRANCH   4  15
TORSDOF 4
ENDMDL
MODEL 7
REMARK VINA RESULT:      -6.1      2.963      4.909
REMARK  Name = min_compound978.pdb
REMARK  4 active torsions:
REMARK  status: ('A' for Active; 'I' for Inactive)
REMARK    1  A    between atoms: _13  and  _15
REMARK    2  A    between atoms: _15  and  _16
REMARK    3  A    between atoms: _16  and  _17
REMARK    4  A    between atoms: _17  and  _19
REMARK                            x       y       z     vdW  Elec       q    Type
REMARK                         _______ _______ _______ _____ _____    ______ ____
ROOT
ATOM      1  C   UNL     1     -17.236   3.479 -16.402  0.00  0.00    +0.017 A 
ATOM      2  C   UNL     1     -15.923   3.808 -16.781  0.00  0.00    +0.034 A 
ATOM      3  C   UNL     1     -14.831   3.562 -15.919  0.00  0.00    +0.048 A 
ATOM      4  N   UNL     1     -13.505   3.855 -16.319  0.00  0.00    -0.298 N 
ATOM      5  C   UNL     1     -13.194   4.903 -17.238  0.00  0.00    +0.048 A 
ATOM      6  C   UNL     1     -11.963   5.594 -17.199  0.00  0.00    +0.024 A 
ATOM      7  C   UNL     1     -11.668   6.636 -18.086  0.00  0.00    +0.002 A 
ATOM      8  C   UNL     1     -12.608   7.036 -19.024  0.00  0.00    +0.001 A 
ATOM      9  C   UNL     1     -13.838   6.389 -19.077  0.00  0.00    +0.017 A 
ATOM     10  C   UNL     1     -14.134   5.331 -18.200  0.00  0.00    +0.034 A 
ATOM     11  C   UNL     1     -15.140   3.066 -14.639  0.00  0.00    +0.024 A 
ATOM     12  C   UNL     1     -16.446   2.731 -14.266  0.00  0.00    +0.002 A 
ATOM     13  S   UNL     1     -15.716   4.532 -18.398  0.00  0.00    -0.086 S 
ATOM     14  C   UNL     1     -17.495   2.928 -15.152  0.00  0.00    +0.001 A 
ENDROOT
BRANCH   4  15
ATOM     15  C   UNL     1     -12.348   3.162 -15.696  0.00  0.00    +0.122 C 
BRANCH  15  16
ATOM     16  C   UNL     1     -12.042   1.764 -16.240  0.00  0.00    +0.139 C 
BRANCH  16  17
ATOM     17  C   UNL     1     -10.552   1.564 -16.317  0.00  0.00    +0.306 C 
ATOM     18  O   UNL     1      -9.846   1.623 -17.306  0.00  0.00    -0.251 OA
BRANCH  17  19
ATOM     19  O   UNL     1     -10.012   1.296 -15.111  0.00  0.00    -0.481 OA
ATOM     20  H   UNL     1     -10.787   1.202 -14.516  0.00  0.00    +0.295 HD
ENDBRANCH  17  19
ENDBRANCH  16  17
ENDBRANCH  15  16
ENDBRANCH   4  15
TORSDOF 4
ENDMDL
MODEL 8
REMARK VINA RESULT:      -6.0     11.370     14.035
REMARK  Name = min_compound978.pdb
REMARK  4 active torsions:
REMARK  status: ('A' for Active; 'I' for Inactive)
REMARK    1  A    between atoms: _13  and  _15
REMARK    2  A    between atoms: _15  and  _16
REMARK    3  A    between atoms: _16  and  _17
REMARK    4  A    between atoms: _17  and  _19
REMARK                            x       y       z     vdW  Elec       q    Type
REMARK                         _______ _______ _______ _____ _____    ______ ____
ROOT
ATOM      1  C   UNL     1     -18.927  -0.211  -5.988  0.00  0.00    +0.017 A 
ATOM      2  C   UNL     1     -17.863  -0.322  -5.077  0.00  0.00    +0.034 A 
ATOM      3  C   UNL     1     -16.532  -0.472  -5.524  0.00  0.00    +0.048 A 
ATOM      4  N   UNL     1     -15.457  -0.541  -4.606  0.00  0.00    -0.298 N 
ATOM      5  C   UNL     1     -15.606  -1.066  -3.286  0.00  0.00    +0.048 A 
ATOM      6  C   UNL     1     -14.539  -1.688  -2.601  0.00  0.00    +0.024 A 
ATOM      7  C   UNL     1     -14.693  -2.223  -1.317  0.00  0.00    +0.002 A 
ATOM      8  C   UNL     1     -15.928  -2.174  -0.688  0.00  0.00    +0.001 A 
ATOM      9  C   UNL     1     -17.005  -1.586  -1.342  0.00  0.00    +0.017 A 
ATOM     10  C   UNL     1     -16.853  -1.032  -2.626  0.00  0.00    +0.034 A 
ATOM     11  C   UNL     1     -16.346  -0.601  -6.913  0.00  0.00    +0.024 A 
ATOM     12  C   UNL     1     -17.405  -0.483  -7.820  0.00  0.00    +0.002 A 
ATOM     13  S   UNL     1     -18.284  -0.247  -3.344  0.00  0.00    -0.086 S 
ATOM     14  C   UNL     1     -18.697  -0.277  -7.357  0.00  0.00    +0.001 A 
ENDROOT
BRANCH   4  15
ATOM     15  C   UNL     1     -14.075  -0.184  -5.019  0.00  0.00    +0.122 C 
BRANCH  15  16
ATOM     16  C   UNL     1     -13.825   1.303  -5.283  0.00  0.00    +0.139 C 
BRANCH  16  17
ATOM     17  C   UNL     1     -13.772   2.050  -3.977  0.00  0.00    +0.306 C 
ATOM     18  O   UNL     1     -14.316   3.102  -3.701  0.00  0.00    -0.251 OA
BRANCH  17  19
ATOM     19  O   UNL     1     -13.017   1.413  -3.058  0.00  0.00    -0.481 OA
ATOM     20  H   UNL     1     -12.156   1.276  -3.508  0.00  0.00    +0.295 HD
ENDBRANCH  17  19
ENDBRANCH  16  17
ENDBRANCH  15  16
ENDBRANCH   4  15
TORSDOF 4
ENDMDL
MODEL 9
REMARK VINA RESULT:      -6.0      9.031     10.860
REMARK  Name = min_compound978.pdb
REMARK  4 active torsions:
REMARK  status: ('A' for Active; 'I' for Inactive)
REMARK    1  A    between atoms: _13  and  _15
REMARK    2  A    between atoms: _15  and  _16
REMARK    3  A    between atoms: _16  and  _17
REMARK    4  A    between atoms: _17  and  _19
REMARK                            x       y       z     vdW  Elec       q    Type
REMARK                         _______ _______ _______ _____ _____    ______ ____
ROOT
ATOM      1  C   UNL     1     -15.129   2.642  -3.808  0.00  0.00    +0.017 A 
ATOM      2  C   UNL     1     -15.777   2.407  -5.033  0.00  0.00    +0.034 A 
ATOM      3  C   UNL     1     -15.334   1.392  -5.909  0.00  0.00    +0.048 A 
ATOM      4  N   UNL     1     -16.013   1.128  -7.123  0.00  0.00    -0.298 N 
ATOM      5  C   UNL     1     -16.723   2.138  -7.842  0.00  0.00    +0.048 A 
ATOM      6  C   UNL     1     -16.876   2.094  -9.245  0.00  0.00    +0.024 A 
ATOM      7  C   UNL     1     -17.551   3.096  -9.950  0.00  0.00    +0.002 A 
ATOM      8  C   UNL     1     -18.074   4.189  -9.275  0.00  0.00    +0.001 A 
ATOM      9  C   UNL     1     -17.924   4.274  -7.894  0.00  0.00    +0.017 A 
ATOM     10  C   UNL     1     -17.260   3.262  -7.178  0.00  0.00    +0.034 A 
ATOM     11  C   UNL     1     -14.165   0.704  -5.535  0.00  0.00    +0.024 A 
ATOM     12  C   UNL     1     -13.526   0.934  -4.312  0.00  0.00    +0.002 A 
ATOM     13  S   UNL     1     -17.181   3.442  -5.406  0.00  0.00    -0.086 S 
ATOM     14  C   UNL     1     -14.014   1.897  -3.442  0.00  0.00    +0.001 A 
ENDROOT
BRANCH   4  15
ATOM     15  C   UNL     1     -15.913  -0.199  -7.783  0.00  0.00    +0.122 C 
BRANCH  15  16
ATOM     16  C   UNL     1     -17.149  -1.093  -7.665  0.00  0.00    +0.139 C 
BRANCH  16  17
ATOM     17  C   UNL     1     -17.806  -0.879  -6.327  0.00  0.00    +0.306 C 
ATOM     18  O   UNL     1     -18.792  -0.210  -6.084  0.00  0.00    -0.251 OA
BRANCH  17  19
ATOM     19  O   UNL     1     -17.171  -1.539  -5.338  0.00  0.00    -0.481 OA
ATOM     20  H   UNL     1     -16.577  -2.164  -5.807  0.00  0.00    +0.295 HD
ENDBRANCH  17  19
ENDBRANCH  16  17
ENDBRANCH  15  16
ENDBRANCH   4  15
TORSDOF 4
ENDMDL
