MODEL 1
REMARK VINA RESULT:      -6.7      0.000      0.000
REMARK  Name = min_compound921.pdb
REMARK  4 active torsions:
REMARK  status: ('A' for Active; 'I' for Inactive)
REMARK    1  A    between atoms: _6  and  _7
REMARK    2  A    between atoms: _12  and  _13
REMARK    3  A    between atoms: _13  and  _17
REMARK    4  A    between atoms: _14  and  _18
REMARK                            x       y       z     vdW  Elec       q    Type
REMARK                         _______ _______ _______ _____ _____    ______ ____
ROOT
ATOM      1 CL   UNL     1     -16.431   6.207 -16.104  0.00  0.00    -0.081 Cl
ATOM      2  C   UNL     1     -14.968   5.302 -15.923  0.00  0.00    +0.065 A 
ATOM      3  C   UNL     1     -14.772   4.259 -15.002  0.00  0.00    +0.065 A 
ATOM      4  C   UNL     1     -13.585   3.495 -15.081  0.00  0.00    +0.037 A 
ATOM      5  C   UNL     1     -12.609   3.761 -16.052  0.00  0.00    -0.000 A 
ATOM      6  C   UNL     1     -12.808   4.825 -16.936  0.00  0.00    +0.011 A 
ATOM      7  C   UNL     1     -13.977   5.583 -16.874  0.00  0.00    +0.023 A 
ENDROOT
BRANCH   3   8
ATOM      8  N   UNL     1     -15.709   3.923 -13.978  0.00  0.00    -0.322 N 
ATOM      9  C   UNL     1     -16.725   2.986 -14.092  0.00  0.00    +0.091 A 
ATOM     10  C   UNL     1     -17.428   2.926 -12.909  0.00  0.00    +0.019 A 
ATOM     11  C   UNL     1     -16.815   3.825 -12.016  0.00  0.00    +0.019 A 
ATOM     12  C   UNL     1     -15.757   4.403 -12.684  0.00  0.00    +0.091 A 
ENDBRANCH   3   8
BRANCH   5  13
ATOM     13  C   UNL     1     -11.351   2.944 -16.163  0.00  0.00    +0.063 C 
ATOM     14  C   UNL     1     -10.261   3.455 -17.086  0.00  0.00    +0.068 C 
ATOM     15  N   UNL     1     -11.254   1.871 -15.427  0.00  0.00    -0.183 NA
BRANCH  15  16
ATOM     16  N   UNL     1     -10.157   1.061 -15.572  0.00  0.00    -0.191 N 
ATOM     17  H   UNL     1      -9.519   1.146 -14.791  0.00  0.00    +0.179 HD
ATOM     18  C   UNL     1     -10.288  -0.241 -16.028  0.00  0.00    +0.317 C 
ATOM     19  N   UNL     1      -9.123  -0.946 -15.938  0.00  0.00    -0.312 N 
ATOM     20  H   UNL     1      -8.421  -0.703 -15.259  0.00  0.00    +0.147 HD
ATOM     21  H   UNL     1      -9.202  -1.924 -16.188  0.00  0.00    +0.147 HD
ATOM     22  O   UNL     1     -11.283  -0.752 -16.528  0.00  0.00    -0.251 OA
ENDBRANCH  15  16
ENDBRANCH   5  13
TORSDOF 3
ENDMDL
MODEL 2
REMARK VINA RESULT:      -6.7      4.725      6.819
REMARK  Name = min_compound921.pdb
REMARK  4 active torsions:
REMARK  status: ('A' for Active; 'I' for Inactive)
REMARK    1  A    between atoms: _6  and  _7
REMARK    2  A    between atoms: _12  and  _13
REMARK    3  A    between atoms: _13  and  _17
REMARK    4  A    between atoms: _14  and  _18
REMARK                            x       y       z     vdW  Elec       q    Type
REMARK                         _______ _______ _______ _____ _____    ______ ____
ROOT
ATOM      1 CL   UNL     1     -10.356   3.834 -15.696  0.00  0.00    -0.081 Cl
ATOM      2  C   UNL     1     -11.395   3.485 -17.035  0.00  0.00    +0.065 A 
ATOM      3  C   UNL     1     -11.664   2.200 -17.535  0.00  0.00    +0.065 A 
ATOM      4  C   UNL     1     -12.665   2.050 -18.524  0.00  0.00    +0.037 A 
ATOM      5  C   UNL     1     -13.381   3.153 -19.010  0.00  0.00    -0.000 A 
ATOM      6  C   UNL     1     -13.074   4.426 -18.524  0.00  0.00    +0.011 A 
ATOM      7  C   UNL     1     -12.094   4.588 -17.544  0.00  0.00    +0.023 A 
ENDROOT
BRANCH   3   8
ATOM      8  N   UNL     1     -10.979   1.024 -17.102  0.00  0.00    -0.322 N 
ATOM      9  C   UNL     1     -11.559  -0.049 -16.442  0.00  0.00    +0.091 A 
ATOM     10  C   UNL     1     -10.598  -1.001 -16.182  0.00  0.00    +0.019 A 
ATOM     11  C   UNL     1      -9.388  -0.529 -16.726  0.00  0.00    +0.019 A 
ATOM     12  C   UNL     1      -9.651   0.696 -17.300  0.00  0.00    +0.091 A 
ENDBRANCH   3   8
BRANCH   5  13
ATOM     13  C   UNL     1     -14.462   3.006 -20.045  0.00  0.00    +0.063 C 
ATOM     14  C   UNL     1     -15.608   4.000 -20.009  0.00  0.00    +0.068 C 
ATOM     15  N   UNL     1     -14.329   2.064 -20.938  0.00  0.00    -0.183 NA
BRANCH  15  16
ATOM     16  N   UNL     1     -15.340   1.853 -21.840  0.00  0.00    -0.191 N 
ATOM     17  H   UNL     1     -16.250   2.035 -21.436  0.00  0.00    +0.179 HD
ATOM     18  C   UNL     1     -15.229   2.289 -23.150  0.00  0.00    +0.317 C 
ATOM     19  N   UNL     1     -16.394   2.152 -23.847  0.00  0.00    -0.312 N 
ATOM     20  H   UNL     1     -17.284   2.149 -23.376  0.00  0.00    +0.147 HD
ATOM     21  H   UNL     1     -16.372   2.534 -24.785  0.00  0.00    +0.147 HD
ATOM     22  O   UNL     1     -14.220   2.703 -23.708  0.00  0.00    -0.251 OA
ENDBRANCH  15  16
ENDBRANCH   5  13
TORSDOF 3
ENDMDL
MODEL 3
REMARK VINA RESULT:      -6.4      3.029      6.298
REMARK  Name = min_compound921.pdb
REMARK  4 active torsions:
REMARK  status: ('A' for Active; 'I' for Inactive)
REMARK    1  A    between atoms: _6  and  _7
REMARK    2  A    between atoms: _12  and  _13
REMARK    3  A    between atoms: _13  and  _17
REMARK    4  A    between atoms: _14  and  _18
REMARK                            x       y       z     vdW  Elec       q    Type
REMARK                         _______ _______ _______ _____ _____    ______ ____
ROOT
ATOM      1 CL   UNL     1     -12.995   1.924 -19.443  0.00  0.00    -0.081 Cl
ATOM      2  C   UNL     1     -13.570   2.568 -17.944  0.00  0.00    +0.065 A 
ATOM      3  C   UNL     1     -13.026   2.282 -16.680  0.00  0.00    +0.065 A 
ATOM      4  C   UNL     1     -13.487   3.011 -15.559  0.00  0.00    +0.037 A 
ATOM      5  C   UNL     1     -14.471   4.001 -15.688  0.00  0.00    -0.000 A 
ATOM      6  C   UNL     1     -15.024   4.246 -16.947  0.00  0.00    +0.011 A 
ATOM      7  C   UNL     1     -14.574   3.539 -18.063  0.00  0.00    +0.023 A 
ENDROOT
BRANCH   3   8
ATOM      8  N   UNL     1     -12.026   1.286 -16.458  0.00  0.00    -0.322 N 
ATOM      9  C   UNL     1     -10.786   1.507 -15.878  0.00  0.00    +0.091 A 
ATOM     10  C   UNL     1     -10.088   0.320 -15.824  0.00  0.00    +0.019 A 
ATOM     11  C   UNL     1     -10.928  -0.679 -16.351  0.00  0.00    +0.019 A 
ATOM     12  C   UNL     1     -12.110  -0.069 -16.711  0.00  0.00    +0.091 A 
ENDBRANCH   3   8
BRANCH   5  13
ATOM     13  C   UNL     1     -14.956   4.799 -14.509  0.00  0.00    +0.063 C 
ATOM     14  C   UNL     1     -15.675   6.106 -14.793  0.00  0.00    +0.068 C 
ATOM     15  N   UNL     1     -14.770   4.303 -13.317  0.00  0.00    -0.183 NA
BRANCH  15  16
ATOM     16  N   UNL     1     -15.124   5.048 -12.222  0.00  0.00    -0.191 N 
ATOM     17  H   UNL     1     -15.219   6.030 -12.448  0.00  0.00    +0.179 HD
ATOM     18  C   UNL     1     -16.090   4.598 -11.335  0.00  0.00    +0.317 C 
ATOM     19  N   UNL     1     -16.435   5.544 -10.415  0.00  0.00    -0.312 N 
ATOM     20  H   UNL     1     -16.334   6.525 -10.616  0.00  0.00    +0.147 HD
ATOM     21  H   UNL     1     -17.195   5.277  -9.801  0.00  0.00    +0.147 HD
ATOM     22  O   UNL     1     -16.577   3.475 -11.282  0.00  0.00    -0.251 OA
ENDBRANCH  15  16
ENDBRANCH   5  13
TORSDOF 3
ENDMDL
MODEL 4
REMARK VINA RESULT:      -6.3      4.362      7.304
REMARK  Name = min_compound921.pdb
REMARK  4 active torsions:
REMARK  status: ('A' for Active; 'I' for Inactive)
REMARK    1  A    between atoms: _6  and  _7
REMARK    2  A    between atoms: _12  and  _13
REMARK    3  A    between atoms: _13  and  _17
REMARK    4  A    between atoms: _14  and  _18
REMARK                            x       y       z     vdW  Elec       q    Type
REMARK                         _______ _______ _______ _____ _____    ______ ____
ROOT
ATOM      1 CL   UNL     1     -15.269   1.502 -15.508  0.00  0.00    -0.081 Cl
ATOM      2  C   UNL     1     -14.996   3.203 -15.657  0.00  0.00    +0.065 A 
ATOM      3  C   UNL     1     -13.815   3.793 -16.140  0.00  0.00    +0.065 A 
ATOM      4  C   UNL     1     -13.795   5.189 -16.367  0.00  0.00    +0.037 A 
ATOM      5  C   UNL     1     -14.921   5.986 -16.116  0.00  0.00    -0.000 A 
ATOM      6  C   UNL     1     -16.073   5.385 -15.603  0.00  0.00    +0.011 A 
ATOM      7  C   UNL     1     -16.111   4.008 -15.381  0.00  0.00    +0.023 A 
ENDROOT
BRANCH   3   8
ATOM      8  N   UNL     1     -12.621   3.059 -16.416  0.00  0.00    -0.322 N 
ATOM      9  C   UNL     1     -12.357   2.364 -17.585  0.00  0.00    +0.091 A 
ATOM     10  C   UNL     1     -11.112   1.779 -17.500  0.00  0.00    +0.019 A 
ATOM     11  C   UNL     1     -10.566   2.148 -16.256  0.00  0.00    +0.019 A 
ATOM     12  C   UNL     1     -11.495   2.945 -15.624  0.00  0.00    +0.091 A 
ENDBRANCH   3   8
BRANCH   5  13
ATOM     13  C   UNL     1     -14.921   7.467 -16.373  0.00  0.00    +0.063 C 
ATOM     14  C   UNL     1     -14.501   7.941 -17.753  0.00  0.00    +0.068 C 
ATOM     15  N   UNL     1     -15.324   8.253 -15.413  0.00  0.00    -0.183 NA
BRANCH  15  16
ATOM     16  N   UNL     1     -15.253   9.612 -15.590  0.00  0.00    -0.191 N 
ATOM     17  H   UNL     1     -14.852   9.855 -16.486  0.00  0.00    +0.179 HD
ATOM     18  C   UNL     1     -16.306  10.434 -15.223  0.00  0.00    +0.317 C 
ATOM     19  N   UNL     1     -16.131  11.723 -15.634  0.00  0.00    -0.312 N 
ATOM     20  H   UNL     1     -15.559  11.939 -16.434  0.00  0.00    +0.147 HD
ATOM     21  H   UNL     1     -16.917  12.334 -15.453  0.00  0.00    +0.147 HD
ATOM     22  O   UNL     1     -17.284  10.126 -14.552  0.00  0.00    -0.251 OA
ENDBRANCH  15  16
ENDBRANCH   5  13
TORSDOF 3
ENDMDL
MODEL 5
REMARK VINA RESULT:      -6.3      5.446      7.258
REMARK  Name = min_compound921.pdb
REMARK  4 active torsions:
REMARK  status: ('A' for Active; 'I' for Inactive)
REMARK    1  A    between atoms: _6  and  _7
REMARK    2  A    between atoms: _12  and  _13
REMARK    3  A    between atoms: _13  and  _17
REMARK    4  A    between atoms: _14  and  _18
REMARK                            x       y       z     vdW  Elec       q    Type
REMARK                         _______ _______ _______ _____ _____    ______ ____
ROOT
ATOM      1 CL   UNL     1     -12.951   2.974 -15.598  0.00  0.00    -0.081 Cl
ATOM      2  C   UNL     1     -13.001   2.797 -17.318  0.00  0.00    +0.065 A 
ATOM      3  C   UNL     1     -12.358   1.780 -18.045  0.00  0.00    +0.065 A 
ATOM      4  C   UNL     1     -12.625   1.658 -19.428  0.00  0.00    +0.037 A 
ATOM      5  C   UNL     1     -13.509   2.529 -20.080  0.00  0.00    -0.000 A 
ATOM      6  C   UNL     1     -14.111   3.555 -19.347  0.00  0.00    +0.011 A 
ATOM      7  C   UNL     1     -13.862   3.683 -17.980  0.00  0.00    +0.023 A 
ENDROOT
BRANCH   3   8
ATOM      8  N   UNL     1     -11.438   0.854 -17.463  0.00  0.00    -0.322 N 
ATOM      9  C   UNL     1     -10.056   0.964 -17.497  0.00  0.00    +0.091 A 
ATOM     10  C   UNL     1      -9.496  -0.107 -16.835  0.00  0.00    +0.019 A 
ATOM     11  C   UNL     1     -10.556  -0.891 -16.342  0.00  0.00    +0.019 A 
ATOM     12  C   UNL     1     -11.728  -0.273 -16.719  0.00  0.00    +0.091 A 
ENDBRANCH   3   8
BRANCH   5  13
ATOM     13  C   UNL     1     -13.819   2.399 -21.545  0.00  0.00    +0.063 C 
ATOM     14  C   UNL     1     -14.892   1.404 -21.950  0.00  0.00    +0.068 C 
ATOM     15  N   UNL     1     -13.182   3.177 -22.376  0.00  0.00    -0.183 NA
BRANCH  15  16
ATOM     16  N   UNL     1     -13.383   3.020 -23.724  0.00  0.00    -0.191 N 
ATOM     17  H   UNL     1     -13.719   2.093 -23.950  0.00  0.00    +0.179 HD
ATOM     18  C   UNL     1     -13.986   4.016 -24.476  0.00  0.00    +0.317 C 
ATOM     19  N   UNL     1     -14.262   3.614 -25.750  0.00  0.00    -0.312 N 
ATOM     20  H   UNL     1     -14.405   2.641 -25.968  0.00  0.00    +0.147 HD
ATOM     21  H   UNL     1     -14.775   4.289 -26.303  0.00  0.00    +0.147 HD
ATOM     22  O   UNL     1     -14.218   5.167 -24.126  0.00  0.00    -0.251 OA
ENDBRANCH  15  16
ENDBRANCH   5  13
TORSDOF 3
ENDMDL
MODEL 6
REMARK VINA RESULT:      -6.3      4.646      7.062
REMARK  Name = min_compound921.pdb
REMARK  4 active torsions:
REMARK  status: ('A' for Active; 'I' for Inactive)
REMARK    1  A    between atoms: _6  and  _7
REMARK    2  A    between atoms: _12  and  _13
REMARK    3  A    between atoms: _13  and  _17
REMARK    4  A    between atoms: _14  and  _18
REMARK                            x       y       z     vdW  Elec       q    Type
REMARK                         _______ _______ _______ _____ _____    ______ ____
ROOT
ATOM      1 CL   UNL     1     -10.416   3.823 -15.752  0.00  0.00    -0.081 Cl
ATOM      2  C   UNL     1     -11.415   3.439 -17.111  0.00  0.00    +0.065 A 
ATOM      3  C   UNL     1     -11.652   2.143 -17.598  0.00  0.00    +0.065 A 
ATOM      4  C   UNL     1     -12.625   1.962 -18.609  0.00  0.00    +0.037 A 
ATOM      5  C   UNL     1     -13.345   3.047 -19.130  0.00  0.00    -0.000 A 
ATOM      6  C   UNL     1     -13.070   4.332 -18.656  0.00  0.00    +0.011 A 
ATOM      7  C   UNL     1     -12.118   4.524 -17.654  0.00  0.00    +0.023 A 
ENDROOT
BRANCH   3   8
ATOM      8  N   UNL     1     -10.960   0.984 -17.131  0.00  0.00    -0.322 N 
ATOM      9  C   UNL     1     -11.544  -0.098 -16.488  0.00  0.00    +0.091 A 
ATOM     10  C   UNL     1     -10.575  -1.028 -16.184  0.00  0.00    +0.019 A 
ATOM     11  C   UNL     1      -9.354  -0.533 -16.681  0.00  0.00    +0.019 A 
ATOM     12  C   UNL     1      -9.619   0.684 -17.272  0.00  0.00    +0.091 A 
ENDBRANCH   3   8
BRANCH   5  13
ATOM     13  C   UNL     1     -14.398   2.869 -20.189  0.00  0.00    +0.063 C 
ATOM     14  C   UNL     1     -14.174   1.784 -21.226  0.00  0.00    +0.068 C 
ATOM     15  N   UNL     1     -15.459   3.626 -20.129  0.00  0.00    -0.183 NA
BRANCH  15  16
ATOM     16  N   UNL     1     -16.393   3.545 -21.130  0.00  0.00    -0.191 N 
ATOM     17  H   UNL     1     -16.296   2.693 -21.668  0.00  0.00    +0.179 HD
ATOM     18  C   UNL     1     -17.713   3.898 -20.903  0.00  0.00    +0.317 C 
ATOM     19  N   UNL     1     -18.526   3.586 -21.953  0.00  0.00    -0.312 N 
ATOM     20  H   UNL     1     -18.291   2.839 -22.587  0.00  0.00    +0.147 HD
ATOM     21  H   UNL     1     -19.511   3.757 -21.790  0.00  0.00    +0.147 HD
ATOM     22  O   UNL     1     -18.163   4.484 -19.926  0.00  0.00    -0.251 OA
ENDBRANCH  15  16
ENDBRANCH   5  13
TORSDOF 3
ENDMDL
MODEL 7
REMARK VINA RESULT:      -6.3      6.083      8.644
REMARK  Name = min_compound921.pdb
REMARK  4 active torsions:
REMARK  status: ('A' for Active; 'I' for Inactive)
REMARK    1  A    between atoms: _6  and  _7
REMARK    2  A    between atoms: _12  and  _13
REMARK    3  A    between atoms: _13  and  _17
REMARK    4  A    between atoms: _14  and  _18
REMARK                            x       y       z     vdW  Elec       q    Type
REMARK                         _______ _______ _______ _____ _____    ______ ____
ROOT
ATOM      1 CL   UNL     1     -17.342   6.562  -9.339  0.00  0.00    -0.081 Cl
ATOM      2  C   UNL     1     -17.150   4.901  -8.896  0.00  0.00    +0.065 A 
ATOM      3  C   UNL     1     -16.523   3.921  -9.684  0.00  0.00    +0.065 A 
ATOM      4  C   UNL     1     -16.286   2.645  -9.124  0.00  0.00    +0.037 A 
ATOM      5  C   UNL     1     -16.667   2.343  -7.809  0.00  0.00    -0.000 A 
ATOM      6  C   UNL     1     -17.320   3.320  -7.053  0.00  0.00    +0.011 A 
ATOM      7  C   UNL     1     -17.555   4.586  -7.590  0.00  0.00    +0.023 A 
ENDROOT
BRANCH   3   8
ATOM      8  N   UNL     1     -16.109   4.140 -11.034  0.00  0.00    -0.322 N 
ATOM      9  C   UNL     1     -16.810   3.748 -12.164  0.00  0.00    +0.091 A 
ATOM     10  C   UNL     1     -16.111   4.125 -13.290  0.00  0.00    +0.019 A 
ATOM     11  C   UNL     1     -14.958   4.804 -12.854  0.00  0.00    +0.019 A 
ATOM     12  C   UNL     1     -14.990   4.818 -11.477  0.00  0.00    +0.091 A 
ENDBRANCH   3   8
BRANCH   5  13
ATOM     13  C   UNL     1     -16.402   0.997  -7.192  0.00  0.00    +0.063 C 
ATOM     14  C   UNL     1     -16.687  -0.231  -8.037  0.00  0.00    +0.068 C 
ATOM     15  N   UNL     1     -15.904   0.965  -5.986  0.00  0.00    -0.183 NA
BRANCH  15  16
ATOM     16  N   UNL     1     -15.734  -0.246  -5.367  0.00  0.00    -0.191 N 
ATOM     17  H   UNL     1     -16.436  -0.917  -5.652  0.00  0.00    +0.179 HD
ATOM     18  C   UNL     1     -14.473  -0.804  -5.227  0.00  0.00    +0.317 C 
ATOM     19  N   UNL     1     -14.516  -2.082  -4.752  0.00  0.00    -0.312 N 
ATOM     20  H   UNL     1     -15.326  -2.662  -4.897  0.00  0.00    +0.147 HD
ATOM     21  H   UNL     1     -13.618  -2.548  -4.712  0.00  0.00    +0.147 HD
ATOM     22  O   UNL     1     -13.396  -0.254  -5.425  0.00  0.00    -0.251 OA
ENDBRANCH  15  16
ENDBRANCH   5  13
TORSDOF 3
ENDMDL
MODEL 8
REMARK VINA RESULT:      -6.2      2.916      6.402
REMARK  Name = min_compound921.pdb
REMARK  4 active torsions:
REMARK  status: ('A' for Active; 'I' for Inactive)
REMARK    1  A    between atoms: _6  and  _7
REMARK    2  A    between atoms: _12  and  _13
REMARK    3  A    between atoms: _13  and  _17
REMARK    4  A    between atoms: _14  and  _18
REMARK                            x       y       z     vdW  Elec       q    Type
REMARK                         _______ _______ _______ _____ _____    ______ ____
ROOT
ATOM      1 CL   UNL     1     -10.170   3.930 -17.299  0.00  0.00    -0.081 Cl
ATOM      2  C   UNL     1     -11.809   3.662 -16.817  0.00  0.00    +0.065 A 
ATOM      3  C   UNL     1     -12.305   2.468 -16.268  0.00  0.00    +0.065 A 
ATOM      4  C   UNL     1     -13.626   2.447 -15.762  0.00  0.00    +0.037 A 
ATOM      5  C   UNL     1     -14.441   3.587 -15.804  0.00  0.00    -0.000 A 
ATOM      6  C   UNL     1     -13.941   4.755 -16.386  0.00  0.00    +0.011 A 
ATOM      7  C   UNL     1     -12.637   4.792 -16.883  0.00  0.00    +0.023 A 
ENDROOT
BRANCH   3   8
ATOM      8  N   UNL     1     -11.547   1.259 -16.192  0.00  0.00    -0.322 N 
ATOM      9  C   UNL     1     -11.828   0.088 -16.879  0.00  0.00    +0.091 A 
ATOM     10  C   UNL     1     -10.886  -0.866 -16.563  0.00  0.00    +0.019 A 
ATOM     11  C   UNL     1      -9.969  -0.266 -15.680  0.00  0.00    +0.019 A 
ATOM     12  C   UNL     1     -10.381   1.034 -15.486  0.00  0.00    +0.091 A 
ENDBRANCH   3   8
BRANCH   5  13
ATOM     13  C   UNL     1     -15.839   3.587 -15.251  0.00  0.00    +0.063 C 
ATOM     14  C   UNL     1     -16.872   4.449 -15.953  0.00  0.00    +0.068 C 
ATOM     15  N   UNL     1     -16.092   2.814 -14.231  0.00  0.00    -0.183 NA
BRANCH  15  16
ATOM     16  N   UNL     1     -17.335   2.858 -13.653  0.00  0.00    -0.191 N 
ATOM     17  H   UNL     1     -17.819   1.973 -13.728  0.00  0.00    +0.179 HD
ATOM     18  C   UNL     1     -17.531   3.483 -12.432  0.00  0.00    +0.317 C 
ATOM     19  N   UNL     1     -18.783   3.274 -11.932  0.00  0.00    -0.312 N 
ATOM     20  H   UNL     1     -19.314   2.458 -12.187  0.00  0.00    +0.147 HD
ATOM     21  H   UNL     1     -18.935   3.649 -11.004  0.00  0.00    +0.147 HD
ATOM     22  O   UNL     1     -16.741   4.208 -11.838  0.00  0.00    -0.251 OA
ENDBRANCH  15  16
ENDBRANCH   5  13
TORSDOF 3
ENDMDL
MODEL 9
REMARK VINA RESULT:      -6.2      3.319      6.846
REMARK  Name = min_compound921.pdb
REMARK  4 active torsions:
REMARK  status: ('A' for Active; 'I' for Inactive)
REMARK    1  A    between atoms: _6  and  _7
REMARK    2  A    between atoms: _12  and  _13
REMARK    3  A    between atoms: _13  and  _17
REMARK    4  A    between atoms: _14  and  _18
REMARK                            x       y       z     vdW  Elec       q    Type
REMARK                         _______ _______ _______ _____ _____    ______ ____
ROOT
ATOM      1 CL   UNL     1     -11.784   4.608 -18.177  0.00  0.00    -0.081 Cl
ATOM      2  C   UNL     1     -12.986   4.323 -16.966  0.00  0.00    +0.065 A 
ATOM      3  C   UNL     1     -12.997   3.232 -16.080  0.00  0.00    +0.065 A 
ATOM      4  C   UNL     1     -13.945   3.217 -15.030  0.00  0.00    +0.037 A 
ATOM      5  C   UNL     1     -14.868   4.260 -14.866  0.00  0.00    -0.000 A 
ATOM      6  C   UNL     1     -14.862   5.318 -15.778  0.00  0.00    +0.011 A 
ATOM      7  C   UNL     1     -13.928   5.350 -16.814  0.00  0.00    +0.023 A 
ENDROOT
BRANCH   3   8
ATOM      8  N   UNL     1     -12.100   2.125 -16.178  0.00  0.00    -0.322 N 
ATOM      9  C   UNL     1     -10.852   2.045 -15.578  0.00  0.00    +0.091 A 
ATOM     10  C   UNL     1     -10.271   0.835 -15.889  0.00  0.00    +0.019 A 
ATOM     11  C   UNL     1     -11.195   0.121 -16.676  0.00  0.00    +0.019 A 
ATOM     12  C   UNL     1     -12.309   0.920 -16.820  0.00  0.00    +0.091 A 
ENDBRANCH   3   8
BRANCH   5  13
ATOM     13  C   UNL     1     -15.868   4.269 -13.742  0.00  0.00    +0.063 C 
ATOM     14  C   UNL     1     -16.788   3.069 -13.612  0.00  0.00    +0.068 C 
ATOM     15  N   UNL     1     -15.856   5.284 -12.922  0.00  0.00    -0.183 NA
BRANCH  15  16
ATOM     16  N   UNL     1     -16.812   5.360 -11.942  0.00  0.00    -0.191 N 
ATOM     17  H   UNL     1     -16.531   4.871 -11.102  0.00  0.00    +0.179 HD
ATOM     18  C   UNL     1     -17.475   6.549 -11.684  0.00  0.00    +0.317 C 
ATOM     19  N   UNL     1     -18.255   6.481 -10.567  0.00  0.00    -0.312 N 
ATOM     20  H   UNL     1     -18.043   5.834  -9.825  0.00  0.00    +0.147 HD
ATOM     21  H   UNL     1     -18.691   7.356 -10.303  0.00  0.00    +0.147 HD
ATOM     22  O   UNL     1     -17.463   7.565 -12.369  0.00  0.00    -0.251 OA
ENDBRANCH  15  16
ENDBRANCH   5  13
TORSDOF 3
ENDMDL
