MODEL 1
REMARK VINA RESULT:      -8.2      0.000      0.000
REMARK  Name = min_compound936.pdb
REMARK  3 active torsions:
REMARK  status: ('A' for Active; 'I' for Inactive)
REMARK    1  A    between atoms: _6  and  _19
REMARK    2  A    between atoms: _10  and  _17
REMARK    3  A    between atoms: _13  and  _18
REMARK                            x       y       z     vdW  Elec       q    Type
REMARK                         _______ _______ _______ _____ _____    ______ ____
ROOT
ATOM      1 CL   UNL     1     -11.419  -0.395 -17.135  0.00  0.00    -0.114 Cl
ATOM      2  C   UNL     1     -11.906   1.069 -16.311  0.00  0.00    +0.147 C 
ATOM      3  C   UNL     1     -13.118   1.564 -16.620  0.00  0.00    +0.034 C 
ATOM      4  C   UNL     1     -13.735   2.847 -15.831  0.00  0.00    -0.024 C 
ATOM      5  C   UNL     1     -14.932   1.978 -15.589  0.00  0.00    +0.011 C 
ATOM      6  C   UNL     1     -14.632   3.447 -16.744  0.00  0.00    +0.007 C 
ATOM      7  C   UNL     1     -15.269   4.671 -16.865  0.00  0.00    +0.008 C 
ATOM      8  C   UNL     1     -14.071   5.541 -17.108  0.00  0.00    +0.044 C 
ATOM      9  C   UNL     1     -12.707   4.783 -17.189  0.00  0.00    +0.185 C 
ATOM     10  O   UNL     1     -11.790   5.866 -17.283  0.00  0.00    -0.461 OA
ATOM     11  C   UNL     1     -12.405   6.834 -18.052  0.00  0.00    +0.311 C 
ATOM     12  O   UNL     1     -11.837   7.820 -18.495  0.00  0.00    -0.251 OA
ATOM     13  C   UNL     1     -13.882   6.500 -18.261  0.00  0.00    +0.101 C 
ATOM     14  C   UNL     1     -14.776   7.722 -18.179  0.00  0.00    +0.019 C 
ATOM     15  C   UNL     1     -12.537   3.717 -16.074  0.00  0.00    +0.046 C 
ATOM     16  C   UNL     1     -11.171   3.239 -15.678  0.00  0.00    +0.061 C 
ATOM     17  C   UNL     1      -9.973   4.108 -15.920  0.00  0.00    +0.016 C 
ATOM     18  C   UNL     1     -10.963   1.893 -15.532  0.00  0.00    +0.154 C 
ATOM     19  O   UNL     1      -9.963   1.244 -15.120  0.00  0.00    -0.296 OA
ENDROOT
TORSDOF 0
ENDMDL
MODEL 2
REMARK VINA RESULT:      -7.7      2.687      5.877
REMARK  Name = min_compound936.pdb
REMARK  3 active torsions:
REMARK  status: ('A' for Active; 'I' for Inactive)
REMARK    1  A    between atoms: _6  and  _19
REMARK    2  A    between atoms: _10  and  _17
REMARK    3  A    between atoms: _13  and  _18
REMARK                            x       y       z     vdW  Elec       q    Type
REMARK                         _______ _______ _______ _____ _____    ______ ____
ROOT
ATOM      1 CL   UNL     1     -14.852   6.142 -18.989  0.00  0.00    -0.114 Cl
ATOM      2  C   UNL     1     -14.039   5.392 -17.634  0.00  0.00    +0.147 C 
ATOM      3  C   UNL     1     -12.764   5.012 -17.827  0.00  0.00    +0.034 C 
ATOM      4  C   UNL     1     -11.863   4.419 -16.608  0.00  0.00    -0.024 C 
ATOM      5  C   UNL     1     -10.865   5.472 -16.984  0.00  0.00    +0.011 C 
ATOM      6  C   UNL     1     -10.896   3.596 -17.228  0.00  0.00    +0.007 C 
ATOM      7  C   UNL     1     -10.023   2.598 -16.827  0.00  0.00    +0.008 C 
ATOM      8  C   UNL     1     -11.021   1.544 -16.450  0.00  0.00    +0.044 C 
ATOM      9  C   UNL     1     -12.515   1.926 -16.700  0.00  0.00    +0.185 C 
ATOM     10  O   UNL     1     -13.189   0.811 -16.131  0.00  0.00    -0.461 OA
ATOM     11  C   UNL     1     -12.416  -0.298 -16.409  0.00  0.00    +0.311 C 
ATOM     12  O   UNL     1     -12.782  -1.451 -16.236  0.00  0.00    -0.251 OA
ATOM     13  C   UNL     1     -11.050   0.119 -16.955  0.00  0.00    +0.101 C 
ATOM     14  C   UNL     1      -9.918  -0.733 -16.414  0.00  0.00    +0.019 C 
ATOM     15  C   UNL     1     -12.862   3.365 -16.231  0.00  0.00    +0.046 C 
ATOM     16  C   UNL     1     -14.282   3.749 -15.933  0.00  0.00    +0.061 C 
ATOM     17  C   UNL     1     -15.280   2.695 -15.557  0.00  0.00    +0.016 C 
ATOM     18  C   UNL     1     -14.759   4.931 -16.432  0.00  0.00    +0.154 C 
ATOM     19  O   UNL     1     -15.857   5.528 -16.254  0.00  0.00    -0.296 OA
ENDROOT
TORSDOF 0
ENDMDL
MODEL 3
REMARK VINA RESULT:      -7.2      3.205      5.925
REMARK  Name = min_compound936.pdb
REMARK  3 active torsions:
REMARK  status: ('A' for Active; 'I' for Inactive)
REMARK    1  A    between atoms: _6  and  _19
REMARK    2  A    between atoms: _10  and  _17
REMARK    3  A    between atoms: _13  and  _18
REMARK                            x       y       z     vdW  Elec       q    Type
REMARK                         _______ _______ _______ _____ _____    ______ ____
ROOT
ATOM      1 CL   UNL     1     -12.040   6.465 -21.902  0.00  0.00    -0.114 Cl
ATOM      2  C   UNL     1     -12.701   5.588 -20.542  0.00  0.00    +0.147 C 
ATOM      3  C   UNL     1     -12.036   5.684 -19.377  0.00  0.00    +0.034 C 
ATOM      4  C   UNL     1     -12.618   5.018 -18.011  0.00  0.00    -0.024 C 
ATOM      5  C   UNL     1     -12.448   6.380 -17.409  0.00  0.00    +0.011 C 
ATOM      6  C   UNL     1     -11.482   4.765 -17.209  0.00  0.00    +0.007 C 
ATOM      7  C   UNL     1     -11.194   3.994 -16.094  0.00  0.00    +0.008 C 
ATOM      8  C   UNL     1     -11.364   2.631 -16.696  0.00  0.00    +0.044 C 
ATOM      9  C   UNL     1     -11.702   2.617 -18.222  0.00  0.00    +0.185 C 
ATOM     10  O   UNL     1     -11.928   1.231 -18.445  0.00  0.00    -0.461 OA
ATOM     11  C   UNL     1     -11.027   0.553 -17.650  0.00  0.00    +0.311 C 
ATOM     12  O   UNL     1     -10.810  -0.646 -17.728  0.00  0.00    -0.251 OA
ATOM     13  C   UNL     1     -10.353   1.508 -16.664  0.00  0.00    +0.101 C 
ATOM     14  C   UNL     1     -10.176   0.898 -15.287  0.00  0.00    +0.019 C 
ATOM     15  C   UNL     1     -12.788   3.655 -18.613  0.00  0.00    +0.046 C 
ATOM     16  C   UNL     1     -13.586   3.485 -19.873  0.00  0.00    +0.061 C 
ATOM     17  C   UNL     1     -13.756   2.122 -20.475  0.00  0.00    +0.016 C 
ATOM     18  C   UNL     1     -13.758   4.570 -20.690  0.00  0.00    +0.154 C 
ATOM     19  O   UNL     1     -14.450   4.726 -21.734  0.00  0.00    -0.296 OA
ENDROOT
TORSDOF 0
ENDMDL
MODEL 4
REMARK VINA RESULT:      -7.0      3.097      5.648
REMARK  Name = min_compound936.pdb
REMARK  3 active torsions:
REMARK  status: ('A' for Active; 'I' for Inactive)
REMARK    1  A    between atoms: _6  and  _19
REMARK    2  A    between atoms: _10  and  _17
REMARK    3  A    between atoms: _13  and  _18
REMARK                            x       y       z     vdW  Elec       q    Type
REMARK                         _______ _______ _______ _____ _____    ______ ____
ROOT
ATOM      1 CL   UNL     1     -17.247   5.468 -18.410  0.00  0.00    -0.114 Cl
ATOM      2  C   UNL     1     -15.962   5.076 -17.290  0.00  0.00    +0.147 C 
ATOM      3  C   UNL     1     -14.702   5.197 -17.746  0.00  0.00    +0.034 C 
ATOM      4  C   UNL     1     -13.422   4.983 -16.765  0.00  0.00    -0.024 C 
ATOM      5  C   UNL     1     -12.974   6.331 -17.244  0.00  0.00    +0.011 C 
ATOM      6  C   UNL     1     -12.368   4.577 -17.614  0.00  0.00    +0.007 C 
ATOM      7  C   UNL     1     -11.130   3.976 -17.458  0.00  0.00    +0.008 C 
ATOM      8  C   UNL     1     -11.578   2.627 -16.978  0.00  0.00    +0.044 C 
ATOM      9  C   UNL     1     -13.126   2.426 -16.915  0.00  0.00    +0.185 C 
ATOM     10  O   UNL     1     -13.217   1.142 -16.312  0.00  0.00    -0.461 OA
ATOM     11  C   UNL     1     -12.167   0.399 -16.811  0.00  0.00    +0.311 C 
ATOM     12  O   UNL     1     -12.045  -0.807 -16.656  0.00  0.00    -0.251 OA
ATOM     13  C   UNL     1     -11.186   1.293 -17.571  0.00  0.00    +0.101 C 
ATOM     14  C   UNL     1      -9.738   0.923 -17.316  0.00  0.00    +0.019 C 
ATOM     15  C   UNL     1     -13.870   3.634 -16.285  0.00  0.00    +0.046 C 
ATOM     16  C   UNL     1     -15.241   3.464 -15.699  0.00  0.00    +0.061 C 
ATOM     17  C   UNL     1     -15.689   2.115 -15.219  0.00  0.00    +0.016 C 
ATOM     18  C   UNL     1     -16.206   4.384 -16.011  0.00  0.00    +0.154 C 
ATOM     19  O   UNL     1     -17.386   4.530 -15.587  0.00  0.00    -0.296 OA
ENDROOT
TORSDOF 0
ENDMDL
MODEL 5
REMARK VINA RESULT:      -7.0     12.708     15.075
REMARK  Name = min_compound936.pdb
REMARK  3 active torsions:
REMARK  status: ('A' for Active; 'I' for Inactive)
REMARK    1  A    between atoms: _6  and  _19
REMARK    2  A    between atoms: _10  and  _17
REMARK    3  A    between atoms: _13  and  _18
REMARK                            x       y       z     vdW  Elec       q    Type
REMARK                         _______ _______ _______ _____ _____    ______ ____
ROOT
ATOM      1 CL   UNL     1     -14.151   1.190  -7.592  0.00  0.00    -0.114 Cl
ATOM      2  C   UNL     1     -14.880   1.166  -6.003  0.00  0.00    +0.147 C 
ATOM      3  C   UNL     1     -14.215   0.503  -5.040  0.00  0.00    +0.034 C 
ATOM      4  C   UNL     1     -14.726   0.515  -3.495  0.00  0.00    -0.024 C 
ATOM      5  C   UNL     1     -13.338   0.970  -3.159  0.00  0.00    +0.011 C 
ATOM      6  C   UNL     1     -14.231  -0.683  -2.932  0.00  0.00    +0.007 C 
ATOM      7  C   UNL     1     -14.493  -1.444  -1.804  0.00  0.00    +0.008 C 
ATOM      8  C   UNL     1     -15.882  -1.899  -2.140  0.00  0.00    +0.044 C 
ATOM      9  C   UNL     1     -16.413  -1.435  -3.534  0.00  0.00    +0.185 C 
ATOM     10  O   UNL     1     -17.756  -1.898  -3.490  0.00  0.00    -0.461 OA
ATOM     11  C   UNL     1     -17.735  -3.103  -2.818  0.00  0.00    +0.311 C 
ATOM     12  O   UNL     1     -18.681  -3.873  -2.759  0.00  0.00    -0.251 OA
ATOM     13  C   UNL     1     -16.373  -3.329  -2.160  0.00  0.00    +0.101 C 
ATOM     14  C   UNL     1     -16.485  -3.945  -0.779  0.00  0.00    +0.019 C 
ATOM     15  C   UNL     1     -16.115   0.059  -3.831  0.00  0.00    +0.046 C 
ATOM     16  C   UNL     1     -16.926   0.812  -4.845  0.00  0.00    +0.061 C 
ATOM     17  C   UNL     1     -18.315   0.356  -5.182  0.00  0.00    +0.016 C 
ATOM     18  C   UNL     1     -16.272   1.592  -5.760  0.00  0.00    +0.154 C 
ATOM     19  O   UNL     1     -16.705   2.388  -6.638  0.00  0.00    -0.296 OA
ENDROOT
TORSDOF 0
ENDMDL
MODEL 6
REMARK VINA RESULT:      -6.7      2.923      4.282
REMARK  Name = min_compound936.pdb
REMARK  3 active torsions:
REMARK  status: ('A' for Active; 'I' for Inactive)
REMARK    1  A    between atoms: _6  and  _19
REMARK    2  A    between atoms: _10  and  _17
REMARK    3  A    between atoms: _13  and  _18
REMARK                            x       y       z     vdW  Elec       q    Type
REMARK                         _______ _______ _______ _____ _____    ______ ____
ROOT
ATOM      1 CL   UNL     1     -10.121   4.184 -16.479  0.00  0.00    -0.114 Cl
ATOM      2  C   UNL     1     -11.802   4.480 -16.859  0.00  0.00    +0.147 C 
ATOM      3  C   UNL     1     -12.105   5.686 -17.370  0.00  0.00    +0.034 C 
ATOM      4  C   UNL     1     -13.610   6.037 -17.880  0.00  0.00    -0.024 C 
ATOM      5  C   UNL     1     -12.957   6.438 -19.169  0.00  0.00    +0.011 C 
ATOM      6  C   UNL     1     -13.725   7.440 -17.759  0.00  0.00    +0.007 C 
ATOM      7  C   UNL     1     -14.758   8.363 -17.738  0.00  0.00    +0.008 C 
ATOM      8  C   UNL     1     -15.412   7.961 -16.449  0.00  0.00    +0.044 C 
ATOM      9  C   UNL     1     -14.696   6.810 -15.673  0.00  0.00    +0.185 C 
ATOM     10  O   UNL     1     -15.608   6.581 -14.607  0.00  0.00    -0.461 OA
ATOM     11  C   UNL     1     -16.115   7.814 -14.252  0.00  0.00    +0.311 C 
ATOM     12  O   UNL     1     -16.782   8.019 -13.250  0.00  0.00    -0.251 OA
ATOM     13  C   UNL     1     -15.729   8.873 -15.286  0.00  0.00    +0.101 C 
ATOM     14  C   UNL     1     -16.856   9.846 -15.575  0.00  0.00    +0.019 C 
ATOM     15  C   UNL     1     -14.263   5.635 -16.591  0.00  0.00    +0.046 C 
ATOM     16  C   UNL     1     -14.015   4.270 -16.018  0.00  0.00    +0.061 C 
ATOM     17  C   UNL     1     -14.669   3.869 -14.729  0.00  0.00    +0.016 C 
ATOM     18  C   UNL     1     -12.888   3.594 -16.400  0.00  0.00    +0.154 C 
ATOM     19  O   UNL     1     -12.497   2.419 -16.154  0.00  0.00    -0.296 OA
ENDROOT
TORSDOF 0
ENDMDL
MODEL 7
REMARK VINA RESULT:      -6.7      2.759      5.267
REMARK  Name = min_compound936.pdb
REMARK  3 active torsions:
REMARK  status: ('A' for Active; 'I' for Inactive)
REMARK    1  A    between atoms: _6  and  _19
REMARK    2  A    between atoms: _10  and  _17
REMARK    3  A    between atoms: _13  and  _18
REMARK                            x       y       z     vdW  Elec       q    Type
REMARK                         _______ _______ _______ _____ _____    ______ ____
ROOT
ATOM      1 CL   UNL     1     -15.561   8.319 -14.367  0.00  0.00    -0.114 Cl
ATOM      2  C   UNL     1     -15.381   7.136 -15.643  0.00  0.00    +0.147 C 
ATOM      3  C   UNL     1     -15.586   5.850 -15.310  0.00  0.00    +0.034 C 
ATOM      4  C   UNL     1     -15.573   4.671 -16.433  0.00  0.00    -0.024 C 
ATOM      5  C   UNL     1     -16.916   4.292 -15.887  0.00  0.00    +0.011 C 
ATOM      6  C   UNL     1     -15.205   3.499 -15.735  0.00  0.00    +0.007 C 
ATOM      7  C   UNL     1     -14.739   2.238 -16.069  0.00  0.00    +0.008 C 
ATOM      8  C   UNL     1     -13.394   2.617 -16.615  0.00  0.00    +0.044 C 
ATOM      9  C   UNL     1     -13.052   4.139 -16.536  0.00  0.00    +0.185 C 
ATOM     10  O   UNL     1     -11.814   4.184 -17.235  0.00  0.00    -0.461 OA
ATOM     11  C   UNL     1     -11.139   3.024 -16.913  0.00  0.00    +0.311 C 
ATOM     12  O   UNL     1      -9.966   2.816 -17.184  0.00  0.00    -0.251 OA
ATOM     13  C   UNL     1     -12.062   2.048 -16.183  0.00  0.00    +0.101 C 
ATOM     14  C   UNL     1     -11.853   0.610 -16.617  0.00  0.00    +0.019 C 
ATOM     15  C   UNL     1     -14.228   5.050 -16.979  0.00  0.00    +0.046 C 
ATOM     16  C   UNL     1     -13.973   6.458 -17.433  0.00  0.00    +0.061 C 
ATOM     17  C   UNL     1     -12.628   6.837 -17.979  0.00  0.00    +0.016 C 
ATOM     18  C   UNL     1     -14.768   7.459 -16.945  0.00  0.00    +0.154 C 
ATOM     19  O   UNL     1     -14.834   8.687 -17.231  0.00  0.00    -0.296 OA
ENDROOT
TORSDOF 0
ENDMDL
MODEL 8
REMARK VINA RESULT:      -6.7     12.583     14.976
REMARK  Name = min_compound936.pdb
REMARK  3 active torsions:
REMARK  status: ('A' for Active; 'I' for Inactive)
REMARK    1  A    between atoms: _6  and  _19
REMARK    2  A    between atoms: _10  and  _17
REMARK    3  A    between atoms: _13  and  _18
REMARK                            x       y       z     vdW  Elec       q    Type
REMARK                         _______ _______ _______ _____ _____    ______ ____
ROOT
ATOM      1 CL   UNL     1     -15.786   1.867  -7.855  0.00  0.00    -0.114 Cl
ATOM      2  C   UNL     1     -15.961   1.639  -6.130  0.00  0.00    +0.147 C 
ATOM      3  C   UNL     1     -14.848   1.326  -5.444  0.00  0.00    +0.034 C 
ATOM      4  C   UNL     1     -14.857   1.212  -3.820  0.00  0.00    -0.024 C 
ATOM      5  C   UNL     1     -13.712   2.179  -3.860  0.00  0.00    +0.011 C 
ATOM      6  C   UNL     1     -13.805   0.322  -3.505  0.00  0.00    +0.007 C 
ATOM      7  C   UNL     1     -13.423  -0.428  -2.405  0.00  0.00    +0.008 C 
ATOM      8  C   UNL     1     -14.569  -1.395  -2.366  0.00  0.00    +0.044 C 
ATOM      9  C   UNL     1     -15.613  -1.234  -3.517  0.00  0.00    +0.185 C 
ATOM     10  O   UNL     1     -16.607  -2.173  -3.127  0.00  0.00    -0.461 OA
ATOM     11  C   UNL     1     -15.938  -3.245  -2.573  0.00  0.00    +0.311 C 
ATOM     12  O   UNL     1     -16.462  -4.315  -2.303  0.00  0.00    -0.251 OA
ATOM     13  C   UNL     1     -14.465  -2.903  -2.345  0.00  0.00    +0.101 C 
ATOM     14  C   UNL     1     -13.933  -3.451  -1.035  0.00  0.00    +0.019 C 
ATOM     15  C   UNL     1     -16.003   0.245  -3.781  0.00  0.00    +0.046 C 
ATOM     16  C   UNL     1     -17.293   0.583  -4.469  0.00  0.00    +0.061 C 
ATOM     17  C   UNL     1     -18.439  -0.384  -4.429  0.00  0.00    +0.016 C 
ATOM     18  C   UNL     1     -17.276   1.511  -5.475  0.00  0.00    +0.154 C 
ATOM     19  O   UNL     1     -18.212   2.040  -6.137  0.00  0.00    -0.296 OA
ENDROOT
TORSDOF 0
ENDMDL
MODEL 9
REMARK VINA RESULT:      -6.4      3.461      4.730
REMARK  Name = min_compound936.pdb
REMARK  3 active torsions:
REMARK  status: ('A' for Active; 'I' for Inactive)
REMARK    1  A    between atoms: _6  and  _19
REMARK    2  A    between atoms: _10  and  _17
REMARK    3  A    between atoms: _13  and  _18
REMARK                            x       y       z     vdW  Elec       q    Type
REMARK                         _______ _______ _______ _____ _____    ______ ____
ROOT
ATOM      1 CL   UNL     1     -15.143   4.794 -10.986  0.00  0.00    -0.114 Cl
ATOM      2  C   UNL     1     -15.722   5.020 -12.620  0.00  0.00    +0.147 C 
ATOM      3  C   UNL     1     -15.364   4.091 -13.524  0.00  0.00    +0.034 C 
ATOM      4  C   UNL     1     -15.941   4.122 -15.045  0.00  0.00    -0.024 C 
ATOM      5  C   UNL     1     -16.354   2.703 -14.796  0.00  0.00    +0.011 C 
ATOM      6  C   UNL     1     -14.963   3.466 -15.827  0.00  0.00    +0.007 C 
ATOM      7  C   UNL     1     -14.653   3.373 -17.174  0.00  0.00    +0.008 C 
ATOM      8  C   UNL     1     -14.239   4.793 -17.423  0.00  0.00    +0.044 C 
ATOM      9  C   UNL     1     -14.254   5.719 -16.165  0.00  0.00    +0.185 C 
ATOM     10  O   UNL     1     -13.957   6.983 -16.744  0.00  0.00    -0.461 OA
ATOM     11  C   UNL     1     -13.052   6.747 -17.759  0.00  0.00    +0.311 C 
ATOM     12  O   UNL     1     -12.437   7.623 -18.346  0.00  0.00    -0.251 OA
ATOM     13  C   UNL     1     -12.938   5.248 -18.042  0.00  0.00    +0.101 C 
ATOM     14  C   UNL     1     -12.835   4.939 -19.523  0.00  0.00    +0.019 C 
ATOM     15  C   UNL     1     -15.527   5.542 -15.295  0.00  0.00    +0.046 C 
ATOM     16  C   UNL     1     -15.965   6.627 -14.355  0.00  0.00    +0.061 C 
ATOM     17  C   UNL     1     -15.552   8.047 -14.604  0.00  0.00    +0.016 C 
ATOM     18  C   UNL     1     -16.329   6.283 -13.081  0.00  0.00    +0.154 C 
ATOM     19  O   UNL     1     -16.820   6.967 -12.140  0.00  0.00    -0.296 OA
ENDROOT
TORSDOF 0
ENDMDL
