MODEL 1
REMARK VINA RESULT:      -6.5      0.000      0.000
REMARK  Name = min_compound930.pdb
REMARK  6 active torsions:
REMARK  status: ('A' for Active; 'I' for Inactive)
REMARK    1  A    between atoms: _3  and  _19
REMARK    2  A    between atoms: _16  and  _18
REMARK    3  A    between atoms: _18  and  _21
REMARK    4  A    between atoms: _19  and  _20
REMARK    5  A    between atoms: _21  and  _22
REMARK    6  A    between atoms: _22  and  _23
REMARK                            x       y       z     vdW  Elec       q    Type
REMARK                         _______ _______ _______ _____ _____    ______ ____
ROOT
ATOM      1  C   UNL     1     -15.609   8.970 -15.180  0.00  0.00    +0.004 A 
ATOM      2  C   UNL     1     -16.143   7.993 -14.335  0.00  0.00    +0.049 A 
ATOM      3  C   UNL     1     -16.017   6.637 -14.652  0.00  0.00    +0.162 A 
ATOM      4  C   UNL     1     -15.332   6.276 -15.824  0.00  0.00    +0.175 A 
ATOM      5  O   UNL     1     -15.290   4.946 -16.180  0.00  0.00    -0.450 OA
ATOM      6  C   UNL     1     -14.052   4.347 -16.320  0.00  0.00    +0.149 A 
ATOM      7  C   UNL     1     -13.998   3.056 -15.768  0.00  0.00    +0.049 A 
ATOM      8  C   UNL     1     -12.840   2.287 -15.867  0.00  0.00    +0.019 A 
ATOM      9  C   UNL     1     -11.725   2.810 -16.518  0.00  0.00    +0.061 A 
ATOM     10  C   UNL     1     -11.767   4.109 -17.042  0.00  0.00    +0.041 A 
ATOM     11  C   UNL     1     -12.946   4.875 -17.017  0.00  0.00    +0.071 A 
ATOM     12  N   UNL     1     -12.879   6.149 -17.605  0.00  0.00    -0.337 N 
ATOM     13  H   UNL     1     -12.196   6.198 -18.353  0.00  0.00    +0.147 HD
ATOM     14  C   UNL     1     -14.124   6.817 -17.939  0.00  0.00    +0.140 C 
ATOM     15  C   UNL     1     -14.815   7.250 -16.686  0.00  0.00    +0.015 A 
ATOM     16  C   UNL     1     -14.947   8.602 -16.349  0.00  0.00    +0.009 A 
ENDROOT
BRANCH   3  17
ATOM     17  O   UNL     1     -16.521   5.606 -13.900  0.00  0.00    -0.491 OA
ATOM     18  C   UNL     1     -15.818   5.263 -12.714  0.00  0.00    +0.277 C 
ENDBRANCH   3  17
BRANCH   9  19
ATOM     19  C   UNL     1     -10.493   1.986 -16.606  0.00  0.00    +0.339 C 
ATOM     20  O   UNL     1      -9.786   2.012 -17.604  0.00  0.00    -0.245 OA
BRANCH  19  21
ATOM     21  O   UNL     1     -10.233   1.177 -15.547  0.00  0.00    -0.461 OA
BRANCH  21  22
ATOM     22  C   UNL     1      -9.878  -0.199 -15.779  0.00  0.00    +0.229 C 
ATOM     23  C   UNL     1     -11.116  -0.929 -16.267  0.00  0.00    +0.048 C 
ENDBRANCH  21  22
ENDBRANCH  19  21
ENDBRANCH   9  19
TORSDOF 4
ENDMDL
MODEL 2
REMARK VINA RESULT:      -6.1      6.628     10.154
REMARK  Name = min_compound930.pdb
REMARK  6 active torsions:
REMARK  status: ('A' for Active; 'I' for Inactive)
REMARK    1  A    between atoms: _3  and  _19
REMARK    2  A    between atoms: _16  and  _18
REMARK    3  A    between atoms: _18  and  _21
REMARK    4  A    between atoms: _19  and  _20
REMARK    5  A    between atoms: _21  and  _22
REMARK    6  A    between atoms: _22  and  _23
REMARK                            x       y       z     vdW  Elec       q    Type
REMARK                         _______ _______ _______ _____ _____    ______ ____
ROOT
ATOM      1  C   UNL     1     -14.886   2.204  -3.745  0.00  0.00    +0.004 A 
ATOM      2  C   UNL     1     -14.505   1.238  -4.682  0.00  0.00    +0.049 A 
ATOM      3  C   UNL     1     -15.164   1.145  -5.911  0.00  0.00    +0.162 A 
ATOM      4  C   UNL     1     -16.204   2.047  -6.193  0.00  0.00    +0.175 A 
ATOM      5  O   UNL     1     -16.910   1.893  -7.366  0.00  0.00    -0.450 OA
ATOM      6  C   UNL     1     -16.933   2.949  -8.257  0.00  0.00    +0.149 A 
ATOM      7  C   UNL     1     -16.782   2.546  -9.594  0.00  0.00    +0.049 A 
ATOM      8  C   UNL     1     -16.835   3.477 -10.630  0.00  0.00    +0.019 A 
ATOM      9  C   UNL     1     -17.036   4.823 -10.329  0.00  0.00    +0.061 A 
ATOM     10  C   UNL     1     -17.156   5.231  -8.994  0.00  0.00    +0.041 A 
ATOM     11  C   UNL     1     -17.178   4.301  -7.939  0.00  0.00    +0.071 A 
ATOM     12  N   UNL     1     -17.340   4.824  -6.645  0.00  0.00    -0.337 N 
ATOM     13  H   UNL     1     -17.867   5.690  -6.638  0.00  0.00    +0.147 HD
ATOM     14  C   UNL     1     -17.740   3.917  -5.584  0.00  0.00    +0.140 C 
ATOM     15  C   UNL     1     -16.605   3.001  -5.251  0.00  0.00    +0.015 A 
ATOM     16  C   UNL     1     -15.930   3.082  -4.028  0.00  0.00    +0.009 A 
ENDROOT
BRANCH   3  17
ATOM     17  O   UNL     1     -14.878   0.223  -6.886  0.00  0.00    -0.491 OA
ATOM     18  C   UNL     1     -15.070  -1.147  -6.561  0.00  0.00    +0.277 C 
ENDBRANCH   3  17
BRANCH   9  19
ATOM     19  C   UNL     1     -17.077   5.807 -11.440  0.00  0.00    +0.339 C 
ATOM     20  O   UNL     1     -17.377   6.976 -11.237  0.00  0.00    -0.245 OA
BRANCH  19  21
ATOM     21  O   UNL     1     -16.815   5.325 -12.682  0.00  0.00    -0.461 OA
BRANCH  21  22
ATOM     22  C   UNL     1     -15.566   5.655 -13.318  0.00  0.00    +0.229 C 
ATOM     23  C   UNL     1     -14.894   4.360 -13.737  0.00  0.00    +0.048 C 
ENDBRANCH  21  22
ENDBRANCH  19  21
ENDBRANCH   9  19
TORSDOF 4
ENDMDL
MODEL 3
REMARK VINA RESULT:      -6.1      2.327      3.320
REMARK  Name = min_compound930.pdb
REMARK  6 active torsions:
REMARK  status: ('A' for Active; 'I' for Inactive)
REMARK    1  A    between atoms: _3  and  _19
REMARK    2  A    between atoms: _16  and  _18
REMARK    3  A    between atoms: _18  and  _21
REMARK    4  A    between atoms: _19  and  _20
REMARK    5  A    between atoms: _21  and  _22
REMARK    6  A    between atoms: _22  and  _23
REMARK                            x       y       z     vdW  Elec       q    Type
REMARK                         _______ _______ _______ _____ _____    ______ ____
ROOT
ATOM      1  C   UNL     1     -19.142   5.773 -15.173  0.00  0.00    +0.004 A 
ATOM      2  C   UNL     1     -18.124   6.709 -15.377  0.00  0.00    +0.049 A 
ATOM      3  C   UNL     1     -16.787   6.357 -15.169  0.00  0.00    +0.162 A 
ATOM      4  C   UNL     1     -16.486   5.045 -14.766  0.00  0.00    +0.175 A 
ATOM      5  O   UNL     1     -15.177   4.729 -14.474  0.00  0.00    -0.450 OA
ATOM      6  C   UNL     1     -14.577   3.711 -15.190  0.00  0.00    +0.149 A 
ATOM      7  C   UNL     1     -13.256   4.007 -15.568  0.00  0.00    +0.049 A 
ATOM      8  C   UNL     1     -12.483   3.070 -16.252  0.00  0.00    +0.019 A 
ATOM      9  C   UNL     1     -13.032   1.828 -16.564  0.00  0.00    +0.061 A 
ATOM     10  C   UNL     1     -14.359   1.543 -16.216  0.00  0.00    +0.041 A 
ATOM     11  C   UNL     1     -15.133   2.445 -15.464  0.00  0.00    +0.071 A 
ATOM     12  N   UNL     1     -16.437   2.035 -15.142  0.00  0.00    -0.337 N 
ATOM     13  H   UNL     1     -16.522   1.027 -15.065  0.00  0.00    +0.147 HD
ATOM     14  C   UNL     1     -17.134   2.736 -14.078  0.00  0.00    +0.140 C 
ATOM     15  C   UNL     1     -17.502   4.111 -14.538  0.00  0.00    +0.015 A 
ATOM     16  C   UNL     1     -18.834   4.479 -14.757  0.00  0.00    +0.009 A 
ENDROOT
BRANCH   3  17
ATOM     17  O   UNL     1     -15.720   7.205 -15.323  0.00  0.00    -0.491 OA
ATOM     18  C   UNL     1     -15.581   8.254 -14.375  0.00  0.00    +0.277 C 
ENDBRANCH   3  17
BRANCH   9  19
ATOM     19  C   UNL     1     -12.203   0.843 -17.303  0.00  0.00    +0.339 C 
ATOM     20  O   UNL     1     -11.773   1.092 -18.421  0.00  0.00    -0.245 OA
BRANCH  19  21
ATOM     21  O   UNL     1     -11.998  -0.352 -16.691  0.00  0.00    -0.461 OA
BRANCH  21  22
ATOM     22  C   UNL     1     -10.651  -0.822 -16.494  0.00  0.00    +0.229 C 
ATOM     23  C   UNL     1      -9.941   0.151 -15.572  0.00  0.00    +0.048 C 
ENDBRANCH  21  22
ENDBRANCH  19  21
ENDBRANCH   9  19
TORSDOF 4
ENDMDL
MODEL 4
REMARK VINA RESULT:      -6.1      4.565      6.949
REMARK  Name = min_compound930.pdb
REMARK  6 active torsions:
REMARK  status: ('A' for Active; 'I' for Inactive)
REMARK    1  A    between atoms: _3  and  _19
REMARK    2  A    between atoms: _16  and  _18
REMARK    3  A    between atoms: _18  and  _21
REMARK    4  A    between atoms: _19  and  _20
REMARK    5  A    between atoms: _21  and  _22
REMARK    6  A    between atoms: _22  and  _23
REMARK                            x       y       z     vdW  Elec       q    Type
REMARK                         _______ _______ _______ _____ _____    ______ ____
ROOT
ATOM      1  C   UNL     1     -10.723   3.148 -15.694  0.00  0.00    +0.004 A 
ATOM      2  C   UNL     1     -10.516   1.879 -16.246  0.00  0.00    +0.049 A 
ATOM      3  C   UNL     1     -11.318   1.425 -17.298  0.00  0.00    +0.162 A 
ATOM      4  C   UNL     1     -12.322   2.271 -17.798  0.00  0.00    +0.175 A 
ATOM      5  O   UNL     1     -13.168   1.786 -18.771  0.00  0.00    -0.450 OA
ATOM      6  C   UNL     1     -13.226   2.455 -19.978  0.00  0.00    +0.149 A 
ATOM      7  C   UNL     1     -13.257   1.593 -21.087  0.00  0.00    +0.049 A 
ATOM      8  C   UNL     1     -13.368   2.098 -22.381  0.00  0.00    +0.019 A 
ATOM      9  C   UNL     1     -13.445   3.476 -22.572  0.00  0.00    +0.061 A 
ATOM     10  C   UNL     1     -13.383   4.339 -21.470  0.00  0.00    +0.041 A 
ATOM     11  C   UNL     1     -13.343   3.850 -20.153  0.00  0.00    +0.071 A 
ATOM     12  N   UNL     1     -13.320   4.809 -19.127  0.00  0.00    -0.337 N 
ATOM     13  H   UNL     1     -13.785   5.672 -19.389  0.00  0.00    +0.147 HD
ATOM     14  C   UNL     1     -13.652   4.382 -17.780  0.00  0.00    +0.140 C 
ATOM     15  C   UNL     1     -12.549   3.532 -17.235  0.00  0.00    +0.015 A 
ATOM     16  C   UNL     1     -11.733   3.971 -16.186  0.00  0.00    +0.009 A 
ENDROOT
BRANCH   3  17
ATOM     17  O   UNL     1     -11.207   0.195 -17.893  0.00  0.00    -0.491 OA
ATOM     18  C   UNL     1     -10.146  -0.644 -17.457  0.00  0.00    +0.277 C 
ENDBRANCH   3  17
BRANCH   9  19
ATOM     19  C   UNL     1     -13.551   4.003 -23.956  0.00  0.00    +0.339 C 
ATOM     20  O   UNL     1     -14.464   3.660 -24.695  0.00  0.00    -0.245 OA
BRANCH  19  21
ATOM     21  O   UNL     1     -12.559   4.838 -24.360  0.00  0.00    -0.461 OA
BRANCH  21  22
ATOM     22  C   UNL     1     -11.227   4.320 -24.534  0.00  0.00    +0.229 C 
ATOM     23  C   UNL     1     -10.253   5.304 -23.914  0.00  0.00    +0.048 C 
ENDBRANCH  21  22
ENDBRANCH  19  21
ENDBRANCH   9  19
TORSDOF 4
ENDMDL
MODEL 5
REMARK VINA RESULT:      -6.1      8.506     10.926
REMARK  Name = min_compound930.pdb
REMARK  6 active torsions:
REMARK  status: ('A' for Active; 'I' for Inactive)
REMARK    1  A    between atoms: _3  and  _19
REMARK    2  A    between atoms: _16  and  _18
REMARK    3  A    between atoms: _18  and  _21
REMARK    4  A    between atoms: _19  and  _20
REMARK    5  A    between atoms: _21  and  _22
REMARK    6  A    between atoms: _22  and  _23
REMARK                            x       y       z     vdW  Elec       q    Type
REMARK                         _______ _______ _______ _____ _____    ______ ____
ROOT
ATOM      1  C   UNL     1     -16.297   5.259 -10.260  0.00  0.00    +0.004 A 
ATOM      2  C   UNL     1     -16.751   6.035  -9.189  0.00  0.00    +0.049 A 
ATOM      3  C   UNL     1     -17.161   5.428  -7.998  0.00  0.00    +0.162 A 
ATOM      4  C   UNL     1     -17.095   4.028  -7.893  0.00  0.00    +0.175 A 
ATOM      5  O   UNL     1     -17.585   3.428  -6.754  0.00  0.00    -0.450 OA
ATOM      6  C   UNL     1     -16.725   2.648  -6.006  0.00  0.00    +0.149 A 
ATOM      7  C   UNL     1     -16.861   2.848  -4.622  0.00  0.00    +0.049 A 
ATOM      8  C   UNL     1     -16.106   2.104  -3.716  0.00  0.00    +0.019 A 
ATOM      9  C   UNL     1     -15.206   1.154  -4.195  0.00  0.00    +0.061 A 
ATOM     10  C   UNL     1     -15.046   0.976  -5.575  0.00  0.00    +0.041 A 
ATOM     11  C   UNL     1     -15.847   1.663  -6.504  0.00  0.00    +0.071 A 
ATOM     12  N   UNL     1     -15.622   1.376  -7.861  0.00  0.00    -0.337 N 
ATOM     13  H   UNL     1     -15.279   0.433  -8.008  0.00  0.00    +0.147 HD
ATOM     14  C   UNL     1     -16.642   1.757  -8.822  0.00  0.00    +0.140 C 
ATOM     15  C   UNL     1     -16.663   3.245  -8.970  0.00  0.00    +0.015 A 
ATOM     16  C   UNL     1     -16.251   3.871 -10.152  0.00  0.00    +0.009 A 
ENDROOT
BRANCH   3  17
ATOM     17  O   UNL     1     -17.638   6.098  -6.900  0.00  0.00    -0.491 OA
ATOM     18  C   UNL     1     -18.960   6.614  -6.978  0.00  0.00    +0.277 C 
ENDBRANCH   3  17
BRANCH   9  19
ATOM     19  C   UNL     1     -14.399   0.377  -3.221  0.00  0.00    +0.339 C 
ATOM     20  O   UNL     1     -13.250   0.699  -2.952  0.00  0.00    -0.245 OA
BRANCH  19  21
ATOM     21  O   UNL     1     -14.990  -0.727  -2.693  0.00  0.00    -0.461 OA
BRANCH  21  22
ATOM     22  C   UNL     1     -14.780  -2.007  -3.317  0.00  0.00    +0.229 C 
ATOM     23  C   UNL     1     -14.338  -2.987  -2.245  0.00  0.00    +0.048 C 
ENDBRANCH  21  22
ENDBRANCH  19  21
ENDBRANCH   9  19
TORSDOF 4
ENDMDL
MODEL 6
REMARK VINA RESULT:      -6.0      3.305      6.022
REMARK  Name = min_compound930.pdb
REMARK  6 active torsions:
REMARK  status: ('A' for Active; 'I' for Inactive)
REMARK    1  A    between atoms: _3  and  _19
REMARK    2  A    between atoms: _16  and  _18
REMARK    3  A    between atoms: _18  and  _21
REMARK    4  A    between atoms: _19  and  _20
REMARK    5  A    between atoms: _21  and  _22
REMARK    6  A    between atoms: _22  and  _23
REMARK                            x       y       z     vdW  Elec       q    Type
REMARK                         _______ _______ _______ _____ _____    ______ ____
ROOT
ATOM      1  C   UNL     1     -12.189   6.050 -18.235  0.00  0.00    +0.004 A 
ATOM      2  C   UNL     1     -12.889   7.244 -18.032  0.00  0.00    +0.049 A 
ATOM      3  C   UNL     1     -14.033   7.266 -17.229  0.00  0.00    +0.162 A 
ATOM      4  C   UNL     1     -14.456   6.073 -16.619  0.00  0.00    +0.175 A 
ATOM      5  O   UNL     1     -15.633   6.080 -15.904  0.00  0.00    -0.450 OA
ATOM      6  C   UNL     1     -15.589   5.716 -14.572  0.00  0.00    +0.149 A 
ATOM      7  C   UNL     1     -16.378   6.536 -13.749  0.00  0.00    +0.049 A 
ATOM      8  C   UNL     1     -16.492   6.279 -12.383  0.00  0.00    +0.019 A 
ATOM      9  C   UNL     1     -15.809   5.196 -11.833  0.00  0.00    +0.061 A 
ATOM     10  C   UNL     1     -14.996   4.395 -12.646  0.00  0.00    +0.041 A 
ATOM     11  C   UNL     1     -14.925   4.593 -14.037  0.00  0.00    +0.071 A 
ATOM     12  N   UNL     1     -14.106   3.705 -14.755  0.00  0.00    -0.337 N 
ATOM     13  H   UNL     1     -14.040   2.793 -14.316  0.00  0.00    +0.147 HD
ATOM     14  C   UNL     1     -14.282   3.620 -16.194  0.00  0.00    +0.140 C 
ATOM     15  C   UNL     1     -13.774   4.871 -16.838  0.00  0.00    +0.015 A 
ATOM     16  C   UNL     1     -12.628   4.869 -17.641  0.00  0.00    +0.009 A 
ENDROOT
BRANCH   3  17
ATOM     17  O   UNL     1     -14.797   8.379 -16.983  0.00  0.00    -0.491 OA
ATOM     18  C   UNL     1     -15.674   8.805 -18.016  0.00  0.00    +0.277 C 
ENDBRANCH   3  17
BRANCH   9  19
ATOM     19  C   UNL     1     -15.927   4.940 -10.375  0.00  0.00    +0.339 C 
ATOM     20  O   UNL     1     -16.069   5.859  -9.582  0.00  0.00    -0.245 OA
BRANCH  19  21
ATOM     21  O   UNL     1     -15.819   3.644  -9.981  0.00  0.00    -0.461 OA
BRANCH  21  22
ATOM     22  C   UNL     1     -17.003   2.828  -9.904  0.00  0.00    +0.229 C 
ATOM     23  C   UNL     1     -16.811   1.823  -8.784  0.00  0.00    +0.048 C 
ENDBRANCH  21  22
ENDBRANCH  19  21
ENDBRANCH   9  19
TORSDOF 4
ENDMDL
MODEL 7
REMARK VINA RESULT:      -5.9      8.757     12.058
REMARK  Name = min_compound930.pdb
REMARK  6 active torsions:
REMARK  status: ('A' for Active; 'I' for Inactive)
REMARK    1  A    between atoms: _3  and  _19
REMARK    2  A    between atoms: _16  and  _18
REMARK    3  A    between atoms: _18  and  _21
REMARK    4  A    between atoms: _19  and  _20
REMARK    5  A    between atoms: _21  and  _22
REMARK    6  A    between atoms: _22  and  _23
REMARK                            x       y       z     vdW  Elec       q    Type
REMARK                         _______ _______ _______ _____ _____    ______ ____
ROOT
ATOM      1  C   UNL     1     -15.338  -2.258  -3.103  0.00  0.00    +0.004 A 
ATOM      2  C   UNL     1     -16.410  -1.513  -2.602  0.00  0.00    +0.049 A 
ATOM      3  C   UNL     1     -16.667  -0.227  -3.088  0.00  0.00    +0.162 A 
ATOM      4  C   UNL     1     -15.839   0.295  -4.096  0.00  0.00    +0.175 A 
ATOM      5  O   UNL     1     -16.039   1.595  -4.506  0.00  0.00    -0.450 OA
ATOM      6  C   UNL     1     -16.323   1.822  -5.839  0.00  0.00    +0.149 A 
ATOM      7  C   UNL     1     -17.334   2.777  -6.033  0.00  0.00    +0.049 A 
ATOM      8  C   UNL     1     -17.710   3.167  -7.317  0.00  0.00    +0.019 A 
ATOM      9  C   UNL     1     -17.075   2.596  -8.418  0.00  0.00    +0.061 A 
ATOM     10  C   UNL     1     -16.087   1.620  -8.227  0.00  0.00    +0.041 A 
ATOM     11  C   UNL     1     -15.642   1.265  -6.942  0.00  0.00    +0.071 A 
ATOM     12  N   UNL     1     -14.622   0.302  -6.875  0.00  0.00    -0.337 N 
ATOM     13  H   UNL     1     -14.020   0.314  -7.691  0.00  0.00    +0.147 HD
ATOM     14  C   UNL     1     -13.878   0.175  -5.634  0.00  0.00    +0.140 C 
ATOM     15  C   UNL     1     -14.751  -0.437  -4.585  0.00  0.00    +0.015 A 
ATOM     16  C   UNL     1     -14.513  -1.724  -4.091  0.00  0.00    +0.009 A 
ENDROOT
BRANCH   3  17
ATOM     17  O   UNL     1     -17.679   0.588  -2.649  0.00  0.00    -0.491 OA
ATOM     18  C   UNL     1     -18.996   0.281  -3.086  0.00  0.00    +0.277 C 
ENDBRANCH   3  17
BRANCH   9  19
ATOM     19  C   UNL     1     -17.493   3.010  -9.781  0.00  0.00    +0.339 C 
ATOM     20  O   UNL     1     -18.664   2.952 -10.127  0.00  0.00    -0.245 OA
BRANCH  19  21
ATOM     21  O   UNL     1     -16.501   3.403 -10.622  0.00  0.00    -0.461 OA
BRANCH  21  22
ATOM     22  C   UNL     1     -15.966   4.735 -10.510  0.00  0.00    +0.229 C 
ATOM     23  C   UNL     1     -14.952   4.931 -11.621  0.00  0.00    +0.048 C 
ENDBRANCH  21  22
ENDBRANCH  19  21
ENDBRANCH   9  19
TORSDOF 4
ENDMDL
MODEL 8
REMARK VINA RESULT:      -5.8     10.350     12.441
REMARK  Name = min_compound930.pdb
REMARK  6 active torsions:
REMARK  status: ('A' for Active; 'I' for Inactive)
REMARK    1  A    between atoms: _3  and  _19
REMARK    2  A    between atoms: _16  and  _18
REMARK    3  A    between atoms: _18  and  _21
REMARK    4  A    between atoms: _19  and  _20
REMARK    5  A    between atoms: _21  and  _22
REMARK    6  A    between atoms: _22  and  _23
REMARK                            x       y       z     vdW  Elec       q    Type
REMARK                         _______ _______ _______ _____ _____    ______ ____
ROOT
ATOM      1  C   UNL     1     -16.555   3.378  -8.842  0.00  0.00    +0.004 A 
ATOM      2  C   UNL     1     -17.111   3.937  -7.687  0.00  0.00    +0.049 A 
ATOM      3  C   UNL     1     -17.493   3.120  -6.618  0.00  0.00    +0.162 A 
ATOM      4  C   UNL     1     -17.297   1.733  -6.721  0.00  0.00    +0.175 A 
ATOM      5  O   UNL     1     -17.759   0.925  -5.706  0.00  0.00    -0.450 OA
ATOM      6  C   UNL     1     -16.848   0.120  -5.047  0.00  0.00    +0.149 A 
ATOM      7  C   UNL     1     -17.041   0.093  -3.656  0.00  0.00    +0.049 A 
ATOM      8  C   UNL     1     -16.244  -0.710  -2.841  0.00  0.00    +0.019 A 
ATOM      9  C   UNL     1     -15.244  -1.490  -3.418  0.00  0.00    +0.061 A 
ATOM     10  C   UNL     1     -15.030  -1.440  -4.802  0.00  0.00    +0.041 A 
ATOM     11  C   UNL     1     -15.867  -0.694  -5.650  0.00  0.00    +0.071 A 
ATOM     12  N   UNL     1     -15.579  -0.749  -7.024  0.00  0.00    -0.337 N 
ATOM     13  H   UNL     1     -15.144  -1.625  -7.297  0.00  0.00    +0.147 HD
ATOM     14  C   UNL     1     -16.604  -0.320  -7.959  0.00  0.00    +0.140 C 
ATOM     15  C   UNL     1     -16.763   1.165  -7.884  0.00  0.00    +0.015 A 
ATOM     16  C   UNL     1     -16.381   1.999  -8.940  0.00  0.00    +0.009 A 
ENDROOT
BRANCH   3  17
ATOM     17  O   UNL     1     -18.062   3.569  -5.453  0.00  0.00    -0.491 OA
ATOM     18  C   UNL     1     -17.198   4.165  -4.496  0.00  0.00    +0.277 C 
ENDBRANCH   3  17
BRANCH   9  19
ATOM     19  C   UNL     1     -14.394  -2.331  -2.539  0.00  0.00    +0.339 C 
ATOM     20  O   UNL     1     -13.760  -1.840  -1.615  0.00  0.00    -0.245 OA
BRANCH  19  21
ATOM     21  O   UNL     1     -14.325  -3.652  -2.851  0.00  0.00    -0.461 OA
BRANCH  21  22
ATOM     22  C   UNL     1     -14.698  -4.631  -1.864  0.00  0.00    +0.229 C 
ATOM     23  C   UNL     1     -13.681  -5.756  -1.907  0.00  0.00    +0.048 C 
ENDBRANCH  21  22
ENDBRANCH  19  21
ENDBRANCH   9  19
TORSDOF 4
ENDMDL
MODEL 9
REMARK VINA RESULT:      -5.7      1.725      2.181
REMARK  Name = min_compound930.pdb
REMARK  6 active torsions:
REMARK  status: ('A' for Active; 'I' for Inactive)
REMARK    1  A    between atoms: _3  and  _19
REMARK    2  A    between atoms: _16  and  _18
REMARK    3  A    between atoms: _18  and  _21
REMARK    4  A    between atoms: _19  and  _20
REMARK    5  A    between atoms: _21  and  _22
REMARK    6  A    between atoms: _22  and  _23
REMARK                            x       y       z     vdW  Elec       q    Type
REMARK                         _______ _______ _______ _____ _____    ______ ____
ROOT
ATOM      1  C   UNL     1     -16.084   8.530 -18.667  0.00  0.00    +0.004 A 
ATOM      2  C   UNL     1     -15.648   8.681 -17.347  0.00  0.00    +0.049 A 
ATOM      3  C   UNL     1     -15.316   7.562 -16.579  0.00  0.00    +0.162 A 
ATOM      4  C   UNL     1     -15.414   6.287 -17.161  0.00  0.00    +0.175 A 
ATOM      5  O   UNL     1     -15.175   5.182 -16.373  0.00  0.00    -0.450 OA
ATOM      6  C   UNL     1     -14.168   4.316 -16.753  0.00  0.00    +0.149 A 
ATOM      7  C   UNL     1     -13.382   3.875 -15.676  0.00  0.00    +0.049 A 
ATOM      8  C   UNL     1     -12.353   2.955 -15.872  0.00  0.00    +0.019 A 
ATOM      9  C   UNL     1     -12.105   2.472 -17.155  0.00  0.00    +0.061 A 
ATOM     10  C   UNL     1     -12.868   2.933 -18.236  0.00  0.00    +0.041 A 
ATOM     11  C   UNL     1     -13.955   3.805 -18.051  0.00  0.00    +0.071 A 
ATOM     12  N   UNL     1     -14.670   4.171 -19.204  0.00  0.00    -0.337 N 
ATOM     13  H   UNL     1     -14.643   3.456 -19.922  0.00  0.00    +0.147 HD
ATOM     14  C   UNL     1     -15.992   4.747 -19.037  0.00  0.00    +0.140 C 
ATOM     15  C   UNL     1     -15.873   6.127 -18.473  0.00  0.00    +0.015 A 
ATOM     16  C   UNL     1     -16.195   7.260 -19.229  0.00  0.00    +0.009 A 
ENDROOT
BRANCH   3  17
ATOM     17  O   UNL     1     -14.897   7.603 -15.273  0.00  0.00    -0.491 OA
ATOM     18  C   UNL     1     -15.833   8.057 -14.305  0.00  0.00    +0.277 C 
ENDBRANCH   3  17
BRANCH   9  19
ATOM     19  C   UNL     1     -10.999   1.501 -17.354  0.00  0.00    +0.339 C 
ATOM     20  O   UNL     1      -9.853   1.881 -17.552  0.00  0.00    -0.245 OA
BRANCH  19  21
ATOM     21  O   UNL     1     -11.343   0.187 -17.352  0.00  0.00    -0.461 OA
BRANCH  21  22
ATOM     22  C   UNL     1     -10.315  -0.812 -17.212  0.00  0.00    +0.229 C 
ATOM     23  C   UNL     1      -9.975  -0.936 -15.739  0.00  0.00    +0.048 C 
ENDBRANCH  21  22
ENDBRANCH  19  21
ENDBRANCH   9  19
TORSDOF 4
ENDMDL
