MODEL 1
REMARK VINA RESULT:      -7.8      0.000      0.000
REMARK  Name = min_compound993.pdb
REMARK  8 active torsions:
REMARK  status: ('A' for Active; 'I' for Inactive)
REMARK    1  A    between atoms: _3  and  _17
REMARK    2  A    between atoms: _4  and  _18
REMARK    3  A    between atoms: _9  and  _14
REMARK    4  A    between atoms: _11  and  _13
REMARK    5  A    between atoms: _14  and  _17
REMARK    6  A    between atoms: _18  and  _19
REMARK    7  A    between atoms: _18  and  _20
REMARK    8  A    between atoms: _18  and  _21
REMARK                            x       y       z     vdW  Elec       q    Type
REMARK                         _______ _______ _______ _____ _____    ______ ____
ROOT
ATOM      1  N   UNL     1     -14.673   2.619 -16.707  0.00  0.00    -0.216 N 
ATOM      2  H   UNL     1     -15.415   2.507 -17.398  0.00  0.00    +0.174 HD
ENDROOT
BRANCH   1   4
ATOM      3  C   UNL     1     -14.514   4.095 -14.672  0.00  0.00    +0.025 A 
ATOM      4  C   UNL     1     -15.150   3.137 -15.460  0.00  0.00    +0.048 A 
ATOM      5  C   UNL     1     -16.255   2.466 -14.922  0.00  0.00    +0.025 A 
ATOM      6  C   UNL     1     -16.725   2.756 -13.639  0.00  0.00    +0.006 A 
ATOM      7  C   UNL     1     -16.101   3.736 -12.845  0.00  0.00    -0.042 A 
ATOM      8  C   UNL     1     -15.002   4.418 -13.395  0.00  0.00    +0.006 A 
BRANCH   7   9
ATOM      9  C   UNL     1     -16.540   3.936 -11.425  0.00  0.00    -0.013 C 
ATOM     10  C   UNL     1     -16.979   4.136 -10.005  0.00  0.00    +0.015 C 
ATOM     11  C   UNL     1     -15.216   4.563 -11.104  0.00  0.00    +0.015 C 
ATOM     12  C   UNL     1     -17.864   3.308 -11.746  0.00  0.00    +0.015 C 
ENDBRANCH   7   9
ENDBRANCH   1   4
BRANCH   1  13
ATOM     13  S   UNL     1     -13.285   3.117 -17.516  0.00  0.00    +0.072 S 
ATOM     14  O   UNL     1     -12.783   4.392 -17.065  0.00  0.00    -0.150 OA
ATOM     15  O   UNL     1     -13.547   2.852 -18.916  0.00  0.00    -0.150 OA
BRANCH  13  16
ATOM     16  C   UNL     1     -12.126   1.885 -16.954  0.00  0.00    +0.109 A 
ATOM     17  C   UNL     1     -11.249   2.175 -15.908  0.00  0.00    +0.030 A 
ATOM     18  C   UNL     1     -10.317   1.214 -15.506  0.00  0.00    +0.024 A 
ATOM     19  C   UNL     1     -10.280  -0.046 -16.112  0.00  0.00    +0.025 A 
ATOM     20  C   UNL     1     -11.129  -0.299 -17.195  0.00  0.00    +0.024 A 
ATOM     21  C   UNL     1     -12.068   0.652 -17.606  0.00  0.00    +0.030 A 
BRANCH  19  22
ATOM     22  N   UNL     1      -9.256  -0.947 -15.795  0.00  0.00    -0.358 N 
ATOM     23  H   UNL     1      -9.436  -1.496 -14.961  0.00  0.00    +0.142 HD
ATOM     24  H   UNL     1      -8.961  -1.525 -16.576  0.00  0.00    +0.142 HD
ENDBRANCH  19  22
ENDBRANCH  13  16
ENDBRANCH   1  13
TORSDOF 5
ENDMDL
MODEL 2
REMARK VINA RESULT:      -7.7      2.591      6.999
REMARK  Name = min_compound993.pdb
REMARK  8 active torsions:
REMARK  status: ('A' for Active; 'I' for Inactive)
REMARK    1  A    between atoms: _3  and  _17
REMARK    2  A    between atoms: _4  and  _18
REMARK    3  A    between atoms: _9  and  _14
REMARK    4  A    between atoms: _11  and  _13
REMARK    5  A    between atoms: _14  and  _17
REMARK    6  A    between atoms: _18  and  _19
REMARK    7  A    between atoms: _18  and  _20
REMARK    8  A    between atoms: _18  and  _21
REMARK                            x       y       z     vdW  Elec       q    Type
REMARK                         _______ _______ _______ _____ _____    ______ ____
ROOT
ATOM      1  N   UNL     1     -14.257   4.262 -15.126  0.00  0.00    -0.216 N 
ATOM      2  H   UNL     1     -13.996   5.206 -15.414  0.00  0.00    +0.174 HD
ENDROOT
BRANCH   1   4
ATOM      3  C   UNL     1     -13.892   2.053 -16.281  0.00  0.00    +0.025 A 
ATOM      4  C   UNL     1     -13.441   3.252 -15.732  0.00  0.00    +0.048 A 
ATOM      5  C   UNL     1     -12.061   3.430 -15.574  0.00  0.00    +0.025 A 
ATOM      6  C   UNL     1     -11.154   2.445 -15.970  0.00  0.00    +0.006 A 
ATOM      7  C   UNL     1     -11.599   1.240 -16.543  0.00  0.00    -0.042 A 
ATOM      8  C   UNL     1     -12.985   1.072 -16.715  0.00  0.00    +0.006 A 
BRANCH   7   9
ATOM      9  C   UNL     1     -10.617   0.146 -16.838  0.00  0.00    -0.013 C 
ATOM     10  C   UNL     1      -9.635  -0.949 -17.133  0.00  0.00    +0.015 C 
ATOM     11  C   UNL     1      -9.695   1.144 -17.473  0.00  0.00    +0.015 C 
ATOM     12  C   UNL     1     -11.539  -0.853 -16.203  0.00  0.00    +0.015 C 
ENDBRANCH   7   9
ENDBRANCH   1   4
BRANCH   1  13
ATOM     13  S   UNL     1     -15.930   4.214 -14.965  0.00  0.00    +0.072 S 
ATOM     14  O   UNL     1     -16.529   3.036 -15.544  0.00  0.00    -0.150 OA
ATOM     15  O   UNL     1     -16.382   5.547 -15.308  0.00  0.00    -0.150 OA
BRANCH  13  16
ATOM     16  C   UNL     1     -16.079   4.044 -13.197  0.00  0.00    +0.109 A 
ATOM     17  C   UNL     1     -15.181   4.697 -12.353  0.00  0.00    +0.030 A 
ATOM     18  C   UNL     1     -15.284   4.521 -10.971  0.00  0.00    +0.024 A 
ATOM     19  C   UNL     1     -16.300   3.731 -10.423  0.00  0.00    +0.025 A 
ATOM     20  C   UNL     1     -17.158   3.040 -11.286  0.00  0.00    +0.024 A 
ATOM     21  C   UNL     1     -17.067   3.210 -12.671  0.00  0.00    +0.030 A 
BRANCH  19  22
ATOM     22  N   UNL     1     -16.310   3.452  -9.050  0.00  0.00    -0.358 N 
ATOM     23  H   UNL     1     -15.565   3.909  -8.534  0.00  0.00    +0.142 HD
ATOM     24  H   UNL     1     -17.216   3.584  -8.610  0.00  0.00    +0.142 HD
ENDBRANCH  19  22
ENDBRANCH  13  16
ENDBRANCH   1  13
TORSDOF 5
ENDMDL
MODEL 3
REMARK VINA RESULT:      -7.5      3.474      7.528
REMARK  Name = min_compound993.pdb
REMARK  8 active torsions:
REMARK  status: ('A' for Active; 'I' for Inactive)
REMARK    1  A    between atoms: _3  and  _17
REMARK    2  A    between atoms: _4  and  _18
REMARK    3  A    between atoms: _9  and  _14
REMARK    4  A    between atoms: _11  and  _13
REMARK    5  A    between atoms: _14  and  _17
REMARK    6  A    between atoms: _18  and  _19
REMARK    7  A    between atoms: _18  and  _20
REMARK    8  A    between atoms: _18  and  _21
REMARK                            x       y       z     vdW  Elec       q    Type
REMARK                         _______ _______ _______ _____ _____    ______ ____
ROOT
ATOM      1  N   UNL     1     -14.214   4.328 -16.088  0.00  0.00    -0.216 N 
ATOM      2  H   UNL     1     -14.686   4.400 -16.991  0.00  0.00    +0.174 HD
ENDROOT
BRANCH   1   4
ATOM      3  C   UNL     1     -11.894   3.420 -15.716  0.00  0.00    +0.025 A 
ATOM      4  C   UNL     1     -13.239   3.279 -16.055  0.00  0.00    +0.048 A 
ATOM      5  C   UNL     1     -13.660   2.059 -16.597  0.00  0.00    +0.025 A 
ATOM      6  C   UNL     1     -12.767   1.000 -16.778  0.00  0.00    +0.006 A 
ATOM      7  C   UNL     1     -11.413   1.127 -16.420  0.00  0.00    -0.042 A 
ATOM      8  C   UNL     1     -10.997   2.349 -15.862  0.00  0.00    +0.006 A 
BRANCH   7   9
ATOM      9  C   UNL     1     -10.448   0.026 -16.747  0.00  0.00    -0.013 C 
ATOM     10  C   UNL     1      -9.483  -1.075 -17.073  0.00  0.00    +0.015 C 
ATOM     11  C   UNL     1     -11.334  -0.959 -16.044  0.00  0.00    +0.015 C 
ATOM     12  C   UNL     1      -9.561   1.011 -17.450  0.00  0.00    +0.015 C 
ENDBRANCH   7   9
ENDBRANCH   1   4
BRANCH   1  13
ATOM     13  S   UNL     1     -15.344   4.663 -14.888  0.00  0.00    +0.072 S 
ATOM     14  O   UNL     1     -14.851   4.425 -13.553  0.00  0.00    -0.150 OA
ATOM     15  O   UNL     1     -16.583   4.080 -15.360  0.00  0.00    -0.150 OA
BRANCH  13  16
ATOM     16  C   UNL     1     -15.489   6.430 -15.068  0.00  0.00    +0.109 A 
ATOM     17  C   UNL     1     -15.045   7.054 -16.235  0.00  0.00    +0.030 A 
ATOM     18  C   UNL     1     -15.128   8.445 -16.345  0.00  0.00    +0.024 A 
ATOM     19  C   UNL     1     -15.685   9.213 -15.318  0.00  0.00    +0.025 A 
ATOM     20  C   UNL     1     -16.074   8.577 -14.134  0.00  0.00    +0.024 A 
ATOM     21  C   UNL     1     -16.000   7.186 -14.012  0.00  0.00    +0.030 A 
BRANCH  19  22
ATOM     22  N   UNL     1     -15.636  10.611 -15.382  0.00  0.00    -0.358 N 
ATOM     23  H   UNL     1     -16.532  11.044 -15.582  0.00  0.00    +0.142 HD
ATOM     24  H   UNL     1     -15.172  11.043 -14.589  0.00  0.00    +0.142 HD
ENDBRANCH  19  22
ENDBRANCH  13  16
ENDBRANCH   1  13
TORSDOF 5
ENDMDL
MODEL 4
REMARK VINA RESULT:      -7.4      3.878      6.516
REMARK  Name = min_compound993.pdb
REMARK  8 active torsions:
REMARK  status: ('A' for Active; 'I' for Inactive)
REMARK    1  A    between atoms: _3  and  _17
REMARK    2  A    between atoms: _4  and  _18
REMARK    3  A    between atoms: _9  and  _14
REMARK    4  A    between atoms: _11  and  _13
REMARK    5  A    between atoms: _14  and  _17
REMARK    6  A    between atoms: _18  and  _19
REMARK    7  A    between atoms: _18  and  _20
REMARK    8  A    between atoms: _18  and  _21
REMARK                            x       y       z     vdW  Elec       q    Type
REMARK                         _______ _______ _______ _____ _____    ______ ____
ROOT
ATOM      1  N   UNL     1     -14.212   4.596 -15.574  0.00  0.00    -0.216 N 
ATOM      2  H   UNL     1     -13.729   5.154 -14.868  0.00  0.00    +0.174 HD
ENDROOT
BRANCH   1   4
ATOM      3  C   UNL     1     -13.871   2.377 -16.718  0.00  0.00    +0.025 A 
ATOM      4  C   UNL     1     -13.405   3.527 -16.083  0.00  0.00    +0.048 A 
ATOM      5  C   UNL     1     -12.052   3.584 -15.728  0.00  0.00    +0.025 A 
ATOM      6  C   UNL     1     -11.182   2.530 -16.015  0.00  0.00    +0.006 A 
ATOM      7  C   UNL     1     -11.641   1.374 -16.674  0.00  0.00    -0.042 A 
ATOM      8  C   UNL     1     -12.996   1.328 -17.043  0.00  0.00    +0.006 A 
BRANCH   7   9
ATOM      9  C   UNL     1     -10.721   0.203 -16.853  0.00  0.00    -0.013 C 
ATOM     10  C   UNL     1      -9.801  -0.968 -17.033  0.00  0.00    +0.015 C 
ATOM     11  C   UNL     1      -9.662   1.117 -17.394  0.00  0.00    +0.015 C 
ATOM     12  C   UNL     1     -11.780  -0.712 -16.312  0.00  0.00    +0.015 C 
ENDBRANCH   7   9
ENDBRANCH   1   4
BRANCH   1  13
ATOM     13  S   UNL     1     -15.166   5.635 -16.489  0.00  0.00    +0.072 S 
ATOM     14  O   UNL     1     -15.474   6.874 -15.818  0.00  0.00    -0.150 OA
ATOM     15  O   UNL     1     -16.202   4.796 -17.057  0.00  0.00    -0.150 OA
BRANCH  13  16
ATOM     16  C   UNL     1     -14.033   6.036 -17.805  0.00  0.00    +0.109 A 
ATOM     17  C   UNL     1     -14.211   5.485 -19.075  0.00  0.00    +0.030 A 
ATOM     18  C   UNL     1     -13.291   5.776 -20.086  0.00  0.00    +0.024 A 
ATOM     19  C   UNL     1     -12.219   6.643 -19.851  0.00  0.00    +0.025 A 
ATOM     20  C   UNL     1     -12.025   7.142 -18.558  0.00  0.00    +0.024 A 
ATOM     21  C   UNL     1     -12.939   6.861 -17.539  0.00  0.00    +0.030 A 
BRANCH  19  22
ATOM     22  N   UNL     1     -11.230   6.817 -20.828  0.00  0.00    -0.358 N 
ATOM     23  H   UNL     1     -11.525   6.549 -21.762  0.00  0.00    +0.142 HD
ATOM     24  H   UNL     1     -10.795   7.734 -20.814  0.00  0.00    +0.142 HD
ENDBRANCH  19  22
ENDBRANCH  13  16
ENDBRANCH   1  13
TORSDOF 5
ENDMDL
MODEL 5
REMARK VINA RESULT:      -7.4      5.709      8.167
REMARK  Name = min_compound993.pdb
REMARK  8 active torsions:
REMARK  status: ('A' for Active; 'I' for Inactive)
REMARK    1  A    between atoms: _3  and  _17
REMARK    2  A    between atoms: _4  and  _18
REMARK    3  A    between atoms: _9  and  _14
REMARK    4  A    between atoms: _11  and  _13
REMARK    5  A    between atoms: _14  and  _17
REMARK    6  A    between atoms: _18  and  _19
REMARK    7  A    between atoms: _18  and  _20
REMARK    8  A    between atoms: _18  and  _21
REMARK                            x       y       z     vdW  Elec       q    Type
REMARK                         _______ _______ _______ _____ _____    ______ ____
ROOT
ATOM      1  N   UNL     1     -17.316   2.488  -8.931  0.00  0.00    -0.216 N 
ATOM      2  H   UNL     1     -18.196   2.002  -9.111  0.00  0.00    +0.174 HD
ENDROOT
BRANCH   1   4
ATOM      3  C   UNL     1     -17.130   2.286  -6.426  0.00  0.00    +0.025 A 
ATOM      4  C   UNL     1     -16.679   2.052  -7.724  0.00  0.00    +0.048 A 
ATOM      5  C   UNL     1     -15.398   1.511  -7.892  0.00  0.00    +0.025 A 
ATOM      6  C   UNL     1     -14.595   1.195  -6.794  0.00  0.00    +0.006 A 
ATOM      7  C   UNL     1     -15.051   1.409  -5.480  0.00  0.00    -0.042 A 
ATOM      8  C   UNL     1     -16.344   1.937  -5.316  0.00  0.00    +0.006 A 
BRANCH   7   9
ATOM      9  C   UNL     1     -14.123   1.186  -4.322  0.00  0.00    -0.013 C 
ATOM     10  C   UNL     1     -13.196   0.964  -3.165  0.00  0.00    +0.015 C 
ATOM     11  C   UNL     1     -14.482   2.536  -3.775  0.00  0.00    +0.015 C 
ATOM     12  C   UNL     1     -13.764  -0.163  -4.870  0.00  0.00    +0.015 C 
ENDBRANCH   7   9
ENDBRANCH   1   4
BRANCH   1  13
ATOM     13  S   UNL     1     -17.496   4.084  -9.430  0.00  0.00    +0.072 S 
ATOM     14  O   UNL     1     -16.701   5.017  -8.669  0.00  0.00    -0.150 OA
ATOM     15  O   UNL     1     -18.922   4.266  -9.612  0.00  0.00    -0.150 OA
BRANCH  13  16
ATOM     16  C   UNL     1     -16.764   3.998 -11.053  0.00  0.00    +0.109 A 
ATOM     17  C   UNL     1     -17.333   3.185 -12.034  0.00  0.00    +0.030 A 
ATOM     18  C   UNL     1     -16.724   3.095 -13.290  0.00  0.00    +0.024 A 
ATOM     19  C   UNL     1     -15.577   3.839 -13.585  0.00  0.00    +0.025 A 
ATOM     20  C   UNL     1     -14.990   4.606 -12.572  0.00  0.00    +0.024 A 
ATOM     21  C   UNL     1     -15.591   4.707 -11.313  0.00  0.00    +0.030 A 
BRANCH  19  22
ATOM     22  N   UNL     1     -14.901   3.636 -14.794  0.00  0.00    -0.358 N 
ATOM     23  H   UNL     1     -14.051   3.089 -14.702  0.00  0.00    +0.142 HD
ATOM     24  H   UNL     1     -15.494   3.296 -15.545  0.00  0.00    +0.142 HD
ENDBRANCH  19  22
ENDBRANCH  13  16
ENDBRANCH   1  13
TORSDOF 5
ENDMDL
MODEL 6
REMARK VINA RESULT:      -7.3      5.586      8.103
REMARK  Name = min_compound993.pdb
REMARK  8 active torsions:
REMARK  status: ('A' for Active; 'I' for Inactive)
REMARK    1  A    between atoms: _3  and  _17
REMARK    2  A    between atoms: _4  and  _18
REMARK    3  A    between atoms: _9  and  _14
REMARK    4  A    between atoms: _11  and  _13
REMARK    5  A    between atoms: _14  and  _17
REMARK    6  A    between atoms: _18  and  _19
REMARK    7  A    between atoms: _18  and  _20
REMARK    8  A    between atoms: _18  and  _21
REMARK                            x       y       z     vdW  Elec       q    Type
REMARK                         _______ _______ _______ _____ _____    ______ ____
ROOT
ATOM      1  N   UNL     1     -16.216   3.704  -9.379  0.00  0.00    -0.216 N 
ATOM      2  H   UNL     1     -15.894   4.584  -8.974  0.00  0.00    +0.174 HD
ENDROOT
BRANCH   1   4
ATOM      3  C   UNL     1     -17.120   2.986 -11.619  0.00  0.00    +0.025 A 
ATOM      4  C   UNL     1     -16.271   3.740 -10.810  0.00  0.00    +0.048 A 
ATOM      5  C   UNL     1     -15.240   4.462 -11.425  0.00  0.00    +0.025 A 
ATOM      6  C   UNL     1     -15.073   4.447 -12.812  0.00  0.00    +0.006 A 
ATOM      7  C   UNL     1     -15.939   3.705 -13.637  0.00  0.00    -0.042 A 
ATOM      8  C   UNL     1     -16.982   2.995 -13.016  0.00  0.00    +0.006 A 
BRANCH   7   9
ATOM      9  C   UNL     1     -15.661   3.599 -15.107  0.00  0.00    -0.013 C 
ATOM     10  C   UNL     1     -15.383   3.493 -16.577  0.00  0.00    +0.015 C 
ATOM     11  C   UNL     1     -16.076   2.158 -15.081  0.00  0.00    +0.015 C 
ATOM     12  C   UNL     1     -15.246   5.040 -15.132  0.00  0.00    +0.015 C 
ENDBRANCH   7   9
ENDBRANCH   1   4
BRANCH   1  13
ATOM     13  S   UNL     1     -17.396   3.069  -8.362  0.00  0.00    +0.072 S 
ATOM     14  O   UNL     1     -18.574   2.617  -9.061  0.00  0.00    -0.150 OA
ATOM     15  O   UNL     1     -17.476   3.994  -7.250  0.00  0.00    -0.150 OA
BRANCH  13  16
ATOM     16  C   UNL     1     -16.561   1.608  -7.775  0.00  0.00    +0.109 A 
ATOM     17  C   UNL     1     -17.261   0.409  -7.637  0.00  0.00    +0.030 A 
ATOM     18  C   UNL     1     -16.604  -0.718  -7.136  0.00  0.00    +0.024 A 
ATOM     19  C   UNL     1     -15.245  -0.668  -6.809  0.00  0.00    +0.025 A 
ATOM     20  C   UNL     1     -14.572   0.556  -6.901  0.00  0.00    +0.024 A 
ATOM     21  C   UNL     1     -15.218   1.690  -7.404  0.00  0.00    +0.030 A 
BRANCH  19  22
ATOM     22  N   UNL     1     -14.634  -1.760  -6.180  0.00  0.00    -0.358 N 
ATOM     23  H   UNL     1     -15.221  -2.587  -6.132  0.00  0.00    +0.142 HD
ATOM     24  H   UNL     1     -13.706  -1.972  -6.534  0.00  0.00    +0.142 HD
ENDBRANCH  19  22
ENDBRANCH  13  16
ENDBRANCH   1  13
TORSDOF 5
ENDMDL
MODEL 7
REMARK VINA RESULT:      -7.0      3.020      6.719
REMARK  Name = min_compound993.pdb
REMARK  8 active torsions:
REMARK  status: ('A' for Active; 'I' for Inactive)
REMARK    1  A    between atoms: _3  and  _17
REMARK    2  A    between atoms: _4  and  _18
REMARK    3  A    between atoms: _9  and  _14
REMARK    4  A    between atoms: _11  and  _13
REMARK    5  A    between atoms: _14  and  _17
REMARK    6  A    between atoms: _18  and  _19
REMARK    7  A    between atoms: _18  and  _20
REMARK    8  A    between atoms: _18  and  _21
REMARK                            x       y       z     vdW  Elec       q    Type
REMARK                         _______ _______ _______ _____ _____    ______ ____
ROOT
ATOM      1  N   UNL     1     -16.450   4.247 -15.657  0.00  0.00    -0.216 N 
ATOM      2  H   UNL     1     -17.179   3.533 -15.686  0.00  0.00    +0.174 HD
ENDROOT
BRANCH   1   4
ATOM      3  C   UNL     1     -13.937   4.416 -15.746  0.00  0.00    +0.025 A 
ATOM      4  C   UNL     1     -15.130   3.694 -15.718  0.00  0.00    +0.048 A 
ATOM      5  C   UNL     1     -15.074   2.316 -15.961  0.00  0.00    +0.025 A 
ATOM      6  C   UNL     1     -13.859   1.672 -16.207  0.00  0.00    +0.006 A 
ATOM      7  C   UNL     1     -12.649   2.390 -16.217  0.00  0.00    -0.042 A 
ATOM      8  C   UNL     1     -12.708   3.771 -15.956  0.00  0.00    +0.006 A 
BRANCH   7   9
ATOM      9  C   UNL     1     -11.376   1.703 -16.612  0.00  0.00    -0.013 C 
ATOM     10  C   UNL     1     -10.103   1.015 -17.008  0.00  0.00    +0.015 C 
ATOM     11  C   UNL     1     -12.115   0.949 -17.678  0.00  0.00    +0.015 C 
ATOM     12  C   UNL     1     -10.638   2.457 -15.547  0.00  0.00    +0.015 C 
ENDBRANCH   7   9
ENDBRANCH   1   4
BRANCH   1  13
ATOM     13  S   UNL     1     -16.962   5.465 -14.617  0.00  0.00    +0.072 S 
ATOM     14  O   UNL     1     -18.389   5.675 -14.636  0.00  0.00    -0.150 OA
ATOM     15  O   UNL     1     -16.027   6.553 -14.819  0.00  0.00    -0.150 OA
BRANCH  13  16
ATOM     16  C   UNL     1     -16.578   4.726 -13.041  0.00  0.00    +0.109 A 
ATOM     17  C   UNL     1     -17.335   3.653 -12.569  0.00  0.00    +0.030 A 
ATOM     18  C   UNL     1     -17.049   3.110 -11.313  0.00  0.00    +0.024 A 
ATOM     19  C   UNL     1     -15.990   3.603 -10.543  0.00  0.00    +0.025 A 
ATOM     20  C   UNL     1     -15.278   4.714 -11.008  0.00  0.00    +0.024 A 
ATOM     21  C   UNL     1     -15.552   5.265 -12.264  0.00  0.00    +0.030 A 
BRANCH  19  22
ATOM     22  N   UNL     1     -15.802   3.145  -9.233  0.00  0.00    -0.358 N 
ATOM     23  H   UNL     1     -16.645   3.159  -8.668  0.00  0.00    +0.142 HD
ATOM     24  H   UNL     1     -15.319   2.254  -9.175  0.00  0.00    +0.142 HD
ENDBRANCH  19  22
ENDBRANCH  13  16
ENDBRANCH   1  13
TORSDOF 5
ENDMDL
MODEL 8
REMARK VINA RESULT:      -6.9      4.732      6.927
REMARK  Name = min_compound993.pdb
REMARK  8 active torsions:
REMARK  status: ('A' for Active; 'I' for Inactive)
REMARK    1  A    between atoms: _3  and  _17
REMARK    2  A    between atoms: _4  and  _18
REMARK    3  A    between atoms: _9  and  _14
REMARK    4  A    between atoms: _11  and  _13
REMARK    5  A    between atoms: _14  and  _17
REMARK    6  A    between atoms: _18  and  _19
REMARK    7  A    between atoms: _18  and  _20
REMARK    8  A    between atoms: _18  and  _21
REMARK                            x       y       z     vdW  Elec       q    Type
REMARK                         _______ _______ _______ _____ _____    ______ ____
ROOT
ATOM      1  N   UNL     1     -13.243   5.464 -17.192  0.00  0.00    -0.216 N 
ATOM      2  H   UNL     1     -13.475   5.774 -16.247  0.00  0.00    +0.174 HD
ENDROOT
BRANCH   1   4
ATOM      3  C   UNL     1     -12.921   3.055 -17.857  0.00  0.00    +0.025 A 
ATOM      4  C   UNL     1     -12.526   4.224 -17.208  0.00  0.00    +0.048 A 
ATOM      5  C   UNL     1     -11.435   4.157 -16.332  0.00  0.00    +0.025 A 
ATOM      6  C   UNL     1     -10.745   2.961 -16.124  0.00  0.00    +0.006 A 
ATOM      7  C   UNL     1     -11.126   1.782 -16.790  0.00  0.00    -0.042 A 
ATOM      8  C   UNL     1     -12.211   1.856 -17.680  0.00  0.00    +0.006 A 
BRANCH   7   9
ATOM      9  C   UNL     1     -10.455   0.483 -16.451  0.00  0.00    -0.013 C 
ATOM     10  C   UNL     1      -9.785  -0.815 -16.111  0.00  0.00    +0.015 C 
ATOM     11  C   UNL     1     -10.759  -0.033 -17.826  0.00  0.00    +0.015 C 
ATOM     12  C   UNL     1     -10.152   1.000 -15.076  0.00  0.00    +0.015 C 
ENDBRANCH   7   9
ENDBRANCH   1   4
BRANCH   1  13
ATOM     13  S   UNL     1     -12.879   6.826 -18.108  0.00  0.00    +0.072 S 
ATOM     14  O   UNL     1     -11.493   7.220 -18.026  0.00  0.00    -0.150 OA
ATOM     15  O   UNL     1     -13.955   7.760 -17.843  0.00  0.00    -0.150 OA
BRANCH  13  16
ATOM     16  C   UNL     1     -13.129   6.185 -19.752  0.00  0.00    +0.109 A 
ATOM     17  C   UNL     1     -12.089   6.215 -20.681  0.00  0.00    +0.030 A 
ATOM     18  C   UNL     1     -12.312   5.746 -21.979  0.00  0.00    +0.024 A 
ATOM     19  C   UNL     1     -13.552   5.213 -22.345  0.00  0.00    +0.025 A 
ATOM     20  C   UNL     1     -14.600   5.242 -21.417  0.00  0.00    +0.024 A 
ATOM     21  C   UNL     1     -14.389   5.705 -20.115  0.00  0.00    +0.030 A 
BRANCH  19  22
ATOM     22  N   UNL     1     -13.805   4.876 -23.680  0.00  0.00    -0.358 N 
ATOM     23  H   UNL     1     -14.568   5.399 -24.098  0.00  0.00    +0.142 HD
ATOM     24  H   UNL     1     -12.976   4.875 -24.268  0.00  0.00    +0.142 HD
ENDBRANCH  19  22
ENDBRANCH  13  16
ENDBRANCH   1  13
TORSDOF 5
ENDMDL
MODEL 9
REMARK VINA RESULT:      -6.7      8.538     11.481
REMARK  Name = min_compound993.pdb
REMARK  8 active torsions:
REMARK  status: ('A' for Active; 'I' for Inactive)
REMARK    1  A    between atoms: _3  and  _17
REMARK    2  A    between atoms: _4  and  _18
REMARK    3  A    between atoms: _9  and  _14
REMARK    4  A    between atoms: _11  and  _13
REMARK    5  A    between atoms: _14  and  _17
REMARK    6  A    between atoms: _18  and  _19
REMARK    7  A    between atoms: _18  and  _20
REMARK    8  A    between atoms: _18  and  _21
REMARK                            x       y       z     vdW  Elec       q    Type
REMARK                         _______ _______ _______ _____ _____    ______ ____
ROOT
ATOM      1  N   UNL     1     -14.757  -1.449  -5.829  0.00  0.00    -0.216 N 
ATOM      2  H   UNL     1     -13.860  -1.815  -6.149  0.00  0.00    +0.174 HD
ENDROOT
BRANCH   1   4
ATOM      3  C   UNL     1     -14.899   0.805  -6.946  0.00  0.00    +0.025 A 
ATOM      4  C   UNL     1     -15.329  -0.505  -6.743  0.00  0.00    +0.048 A 
ATOM      5  C   UNL     1     -16.537  -0.903  -7.328  0.00  0.00    +0.025 A 
ATOM      6  C   UNL     1     -17.288  -0.022  -8.111  0.00  0.00    +0.006 A 
ATOM      7  C   UNL     1     -16.851   1.296  -8.336  0.00  0.00    -0.042 A 
ATOM      8  C   UNL     1     -15.629   1.686  -7.760  0.00  0.00    +0.006 A 
BRANCH   7   9
ATOM      9  C   UNL     1     -17.736   2.261  -9.068  0.00  0.00    -0.013 C 
ATOM     10  C   UNL     1     -18.622   3.226  -9.799  0.00  0.00    +0.015 C 
ATOM     11  C   UNL     1     -18.926   1.734  -8.322  0.00  0.00    +0.015 C 
ATOM     12  C   UNL     1     -16.546   2.787  -9.814  0.00  0.00    +0.015 C 
ENDBRANCH   7   9
ENDBRANCH   1   4
BRANCH   1  13
ATOM     13  S   UNL     1     -14.680  -1.282  -4.158  0.00  0.00    +0.072 S 
ATOM     14  O   UNL     1     -13.776  -0.245  -3.725  0.00  0.00    -0.150 OA
ATOM     15  O   UNL     1     -14.594  -2.634  -3.645  0.00  0.00    -0.150 OA
BRANCH  13  16
ATOM     16  C   UNL     1     -16.328  -0.693  -3.817  0.00  0.00    +0.109 A 
ATOM     17  C   UNL     1     -17.406  -1.579  -3.839  0.00  0.00    +0.030 A 
ATOM     18  C   UNL     1     -18.698  -1.096  -3.611  0.00  0.00    +0.024 A 
ATOM     19  C   UNL     1     -18.917   0.255  -3.323  0.00  0.00    +0.025 A 
ATOM     20  C   UNL     1     -17.832   1.138  -3.360  0.00  0.00    +0.024 A 
ATOM     21  C   UNL     1     -16.534   0.667  -3.583  0.00  0.00    +0.030 A 
BRANCH  19  22
ATOM     22  N   UNL     1     -20.224   0.751  -3.234  0.00  0.00    -0.358 N 
ATOM     23  H   UNL     1     -20.388   1.578  -3.799  0.00  0.00    +0.142 HD
ATOM     24  H   UNL     1     -20.941   0.045  -3.372  0.00  0.00    +0.142 HD
ENDBRANCH  19  22
ENDBRANCH  13  16
ENDBRANCH   1  13
TORSDOF 5
ENDMDL
