MODEL 1
REMARK VINA RESULT:      -4.8      0.000      0.000
REMARK  Name = min_compound1.pdb
REMARK  3 active torsions:
REMARK  status: ('A' for Active; 'I' for Inactive)
REMARK    1  A    between atoms: _2  and  _7
REMARK    2  A    between atoms: _3  and  _9
REMARK    3  A    between atoms: _7  and  _8
REMARK                            x       y       z     vdW  Elec       q    Type
REMARK                         _______ _______ _______ _____ _____    ______ ____
ROOT
ATOM      1  N   UNK A   1     -10.269   1.158 -17.761  0.00  0.00    -0.254 NA
ATOM      2  C   UNK A   0      -9.263   0.426 -17.236  0.00  0.00    +0.111 A 
ATOM      3  C   UNK A   0      -9.458  -0.677 -16.422  0.00  0.00    +0.023 A 
ATOM      4  C   UNK A   1     -10.763  -1.057 -16.124  0.00  0.00    +0.049 A 
ATOM      5  C   UNK A   1     -11.816  -0.316 -16.649  0.00  0.00    +0.140 A 
ATOM      6  C   UNK A   1     -11.544   0.791 -17.457  0.00  0.00    +0.108 A 
ENDROOT
BRANCH   5   7
ATOM      7  O   UNK A   1     -13.111  -0.660 -16.370  0.00  0.00    -0.505 OA
ATOM      8  H   UNK A   1     -13.515  -1.028 -17.176  0.00  0.00    +0.292 HD
ENDBRANCH   5   7
BRANCH   6   9
ATOM      9  C   UNK A   1     -12.653   1.605 -18.087  0.00  0.00    +0.214 C 
BRANCH   9  10
ATOM     10  O   UNK A   1     -12.747   1.455 -19.505  0.00  0.00    -0.389 OA
ATOM     11  H   UNK A   1     -12.408   2.289 -19.882  0.00  0.00    +0.210 HD
ENDBRANCH   9  10
ENDBRANCH   6   9
TORSDOF 3
ENDMDL
MODEL 2
REMARK VINA RESULT:      -4.7      2.469      3.499
REMARK  Name = min_compound1.pdb
REMARK  3 active torsions:
REMARK  status: ('A' for Active; 'I' for Inactive)
REMARK    1  A    between atoms: _2  and  _7
REMARK    2  A    between atoms: _3  and  _9
REMARK    3  A    between atoms: _7  and  _8
REMARK                            x       y       z     vdW  Elec       q    Type
REMARK                         _______ _______ _______ _____ _____    ______ ____
ROOT
ATOM      1  N   UNK A   1     -11.935   2.503 -17.873  0.00  0.00    -0.254 NA
ATOM      2  C   UNK A   0     -11.832   3.813 -17.560  0.00  0.00    +0.111 A 
ATOM      3  C   UNK A   0     -11.133   4.289 -16.464  0.00  0.00    +0.023 A 
ATOM      4  C   UNK A   1     -10.498   3.371 -15.634  0.00  0.00    +0.049 A 
ATOM      5  C   UNK A   1     -10.592   2.016 -15.932  0.00  0.00    +0.140 A 
ATOM      6  C   UNK A   1     -11.323   1.607 -17.050  0.00  0.00    +0.108 A 
ENDROOT
BRANCH   5   7
ATOM      7  O   UNK A   1      -9.985   1.087 -15.132  0.00  0.00    -0.505 OA
ATOM      8  H   UNK A   1     -10.589   0.864 -14.402  0.00  0.00    +0.292 HD
ENDBRANCH   5   7
BRANCH   6   9
ATOM      9  C   UNK A   1     -11.423   0.148 -17.443  0.00  0.00    +0.214 C 
BRANCH   9  10
ATOM     10  O   UNK A   1     -12.232  -0.634 -16.563  0.00  0.00    -0.389 OA
ATOM     11  H   UNK A   1     -11.653  -1.350 -16.238  0.00  0.00    +0.210 HD
ENDBRANCH   9  10
ENDBRANCH   6   9
TORSDOF 3
ENDMDL
MODEL 3
REMARK VINA RESULT:      -4.6      2.558      2.732
REMARK  Name = min_compound1.pdb
REMARK  3 active torsions:
REMARK  status: ('A' for Active; 'I' for Inactive)
REMARK    1  A    between atoms: _2  and  _7
REMARK    2  A    between atoms: _3  and  _9
REMARK    3  A    between atoms: _7  and  _8
REMARK                            x       y       z     vdW  Elec       q    Type
REMARK                         _______ _______ _______ _____ _____    ______ ____
ROOT
ATOM      1  N   UNK A   1      -9.999   1.281 -15.656  0.00  0.00    -0.254 NA
ATOM      2  C   UNK A   0      -9.914  -0.055 -15.842  0.00  0.00    +0.111 A 
ATOM      3  C   UNK A   0     -10.949  -0.830 -16.337  0.00  0.00    +0.023 A 
ATOM      4  C   UNK A   1     -12.147  -0.204 -16.663  0.00  0.00    +0.049 A 
ATOM      5  C   UNK A   1     -12.261   1.170 -16.478  0.00  0.00    +0.140 A 
ATOM      6  C   UNK A   1     -11.177   1.888 -15.965  0.00  0.00    +0.108 A 
ENDROOT
BRANCH   5   7
ATOM      7  O   UNK A   1     -13.428   1.816 -16.784  0.00  0.00    -0.505 OA
ATOM      8  H   UNK A   1     -14.066   1.661 -16.065  0.00  0.00    +0.292 HD
ENDBRANCH   5   7
BRANCH   6   9
ATOM      9  C   UNK A   1     -11.235   3.389 -15.783  0.00  0.00    +0.214 C 
BRANCH   9  10
ATOM     10  O   UNK A   1     -10.051   3.949 -15.210  0.00  0.00    -0.389 OA
ATOM     11  H   UNK A   1     -10.302   4.841 -14.906  0.00  0.00    +0.210 HD
ENDBRANCH   9  10
ENDBRANCH   6   9
TORSDOF 3
ENDMDL
MODEL 4
REMARK VINA RESULT:      -4.5      2.220      2.306
REMARK  Name = min_compound1.pdb
REMARK  3 active torsions:
REMARK  status: ('A' for Active; 'I' for Inactive)
REMARK    1  A    between atoms: _2  and  _7
REMARK    2  A    between atoms: _3  and  _9
REMARK    3  A    between atoms: _7  and  _8
REMARK                            x       y       z     vdW  Elec       q    Type
REMARK                         _______ _______ _______ _____ _____    ______ ____
ROOT
ATOM      1  N   UNK A   1     -11.300   0.488 -17.948  0.00  0.00    -0.254 NA
ATOM      2  C   UNK A   0     -10.654  -0.620 -17.521  0.00  0.00    +0.111 A 
ATOM      3  C   UNK A   0      -9.984  -0.701 -16.313  0.00  0.00    +0.023 A 
ATOM      4  C   UNK A   1      -9.971   0.418 -15.487  0.00  0.00    +0.049 A 
ATOM      5  C   UNK A   1     -10.625   1.572 -15.905  0.00  0.00    +0.140 A 
ATOM      6  C   UNK A   1     -11.274   1.585 -17.143  0.00  0.00    +0.108 A 
ENDROOT
BRANCH   5   7
ATOM      7  O   UNK A   1     -10.626   2.692 -15.119  0.00  0.00    -0.505 OA
ATOM      8  H   UNK A   1     -10.741   3.472 -15.690  0.00  0.00    +0.292 HD
ENDBRANCH   5   7
BRANCH   6   9
ATOM      9  C   UNK A   1     -12.035   2.800 -17.627  0.00  0.00    +0.214 C 
BRANCH   9  10
ATOM     10  O   UNK A   1     -11.278   4.011 -17.587  0.00  0.00    -0.389 OA
ATOM     11  H   UNK A   1     -11.925   4.721 -17.413  0.00  0.00    +0.210 HD
ENDBRANCH   9  10
ENDBRANCH   6   9
TORSDOF 3
ENDMDL
MODEL 5
REMARK VINA RESULT:      -4.4     11.822     12.621
REMARK  Name = min_compound1.pdb
REMARK  3 active torsions:
REMARK  status: ('A' for Active; 'I' for Inactive)
REMARK    1  A    between atoms: _2  and  _7
REMARK    2  A    between atoms: _3  and  _9
REMARK    3  A    between atoms: _7  and  _8
REMARK                            x       y       z     vdW  Elec       q    Type
REMARK                         _______ _______ _______ _____ _____    ______ ____
ROOT
ATOM      1  N   UNK A   1     -14.057   1.355  -4.637  0.00  0.00    -0.254 NA
ATOM      2  C   UNK A   0     -14.062   0.949  -3.349  0.00  0.00    +0.111 A 
ATOM      3  C   UNK A   0     -14.284  -0.360  -2.956  0.00  0.00    +0.023 A 
ATOM      4  C   UNK A   1     -14.514  -1.316  -3.940  0.00  0.00    +0.049 A 
ATOM      5  C   UNK A   1     -14.518  -0.922  -5.274  0.00  0.00    +0.140 A 
ATOM      6  C   UNK A   1     -14.296   0.420  -5.596  0.00  0.00    +0.108 A 
ENDROOT
BRANCH   5   7
ATOM      7  O   UNK A   1     -14.748  -1.836  -6.266  0.00  0.00    -0.505 OA
ATOM      8  H   UNK A   1     -13.918  -1.979  -6.755  0.00  0.00    +0.292 HD
ENDBRANCH   5   7
BRANCH   6   9
ATOM      9  C   UNK A   1     -14.248   0.893  -7.033  0.00  0.00    +0.214 C 
BRANCH   9  10
ATOM     10  O   UNK A   1     -15.485   0.745  -7.733  0.00  0.00    -0.389 OA
ATOM     11  H   UNK A   1     -15.295   0.145  -8.479  0.00  0.00    +0.210 HD
ENDBRANCH   9  10
ENDBRANCH   6   9
TORSDOF 3
ENDMDL
MODEL 6
REMARK VINA RESULT:      -4.3     11.941     12.782
REMARK  Name = min_compound1.pdb
REMARK  3 active torsions:
REMARK  status: ('A' for Active; 'I' for Inactive)
REMARK    1  A    between atoms: _2  and  _7
REMARK    2  A    between atoms: _3  and  _9
REMARK    3  A    between atoms: _7  and  _8
REMARK                            x       y       z     vdW  Elec       q    Type
REMARK                         _______ _______ _______ _____ _____    ______ ____
ROOT
ATOM      1  N   UNK A   1     -15.232   1.446  -5.640  0.00  0.00    -0.254 NA
ATOM      2  C   UNK A   0     -14.833   1.968  -4.459  0.00  0.00    +0.111 A 
ATOM      3  C   UNK A   0     -14.292   1.218  -3.429  0.00  0.00    +0.023 A 
ATOM      4  C   UNK A   1     -14.149  -0.153  -3.615  0.00  0.00    +0.049 A 
ATOM      5  C   UNK A   1     -14.555  -0.716  -4.820  0.00  0.00    +0.140 A 
ATOM      6  C   UNK A   1     -15.102   0.102  -5.812  0.00  0.00    +0.108 A 
ENDROOT
BRANCH   5   7
ATOM      7  O   UNK A   1     -14.434  -2.062  -5.032  0.00  0.00    -0.505 OA
ATOM      8  H   UNK A   1     -14.475  -2.231  -5.989  0.00  0.00    +0.292 HD
ENDBRANCH   5   7
BRANCH   6   9
ATOM      9  C   UNK A   1     -15.522  -0.453  -7.156  0.00  0.00    +0.214 C 
BRANCH   9  10
ATOM     10  O   UNK A   1     -16.334  -1.626  -7.070  0.00  0.00    -0.389 OA
ATOM     11  H   UNK A   1     -15.713  -2.368  -6.947  0.00  0.00    +0.210 HD
ENDBRANCH   9  10
ENDBRANCH   6   9
TORSDOF 3
ENDMDL
MODEL 7
REMARK VINA RESULT:      -4.3      1.836      3.180
REMARK  Name = min_compound1.pdb
REMARK  3 active torsions:
REMARK  status: ('A' for Active; 'I' for Inactive)
REMARK    1  A    between atoms: _2  and  _7
REMARK    2  A    between atoms: _3  and  _9
REMARK    3  A    between atoms: _7  and  _8
REMARK                            x       y       z     vdW  Elec       q    Type
REMARK                         _______ _______ _______ _____ _____    ______ ____
ROOT
ATOM      1  N   UNK A   1     -10.166   2.085 -17.144  0.00  0.00    -0.254 NA
ATOM      2  C   UNK A   0     -11.053   3.092 -16.990  0.00  0.00    +0.111 A 
ATOM      3  C   UNK A   0     -12.389   2.900 -16.684  0.00  0.00    +0.023 A 
ATOM      4  C   UNK A   1     -12.851   1.597 -16.525  0.00  0.00    +0.049 A 
ATOM      5  C   UNK A   1     -11.958   0.543 -16.682  0.00  0.00    +0.140 A 
ATOM      6  C   UNK A   1     -10.624   0.812 -17.000  0.00  0.00    +0.108 A 
ENDROOT
BRANCH   5   7
ATOM      7  O   UNK A   1     -12.381  -0.750 -16.538  0.00  0.00    -0.505 OA
ATOM      8  H   UNK A   1     -12.295  -1.003 -15.602  0.00  0.00    +0.292 HD
ENDBRANCH   5   7
BRANCH   6   9
ATOM      9  C   UNK A   1      -9.603  -0.297 -17.141  0.00  0.00    +0.214 C 
BRANCH   9  10
ATOM     10  O   UNK A   1      -9.398  -1.050 -15.944  0.00  0.00    -0.389 OA
ATOM     11  H   UNK A   1      -8.431  -1.156 -15.862  0.00  0.00    +0.210 HD
ENDBRANCH   9  10
ENDBRANCH   6   9
TORSDOF 3
ENDMDL
MODEL 8
REMARK VINA RESULT:      -4.3      3.154      4.474
REMARK  Name = min_compound1.pdb
REMARK  3 active torsions:
REMARK  status: ('A' for Active; 'I' for Inactive)
REMARK    1  A    between atoms: _2  and  _7
REMARK    2  A    between atoms: _3  and  _9
REMARK    3  A    between atoms: _7  and  _8
REMARK                            x       y       z     vdW  Elec       q    Type
REMARK                         _______ _______ _______ _____ _____    ______ ____
ROOT
ATOM      1  N   UNK A   1     -12.783   1.261 -16.493  0.00  0.00    -0.254 NA
ATOM      2  C   UNK A   0     -13.879   2.049 -16.444  0.00  0.00    +0.111 A 
ATOM      3  C   UNK A   0     -13.860   3.369 -16.028  0.00  0.00    +0.023 A 
ATOM      4  C   UNK A   1     -12.644   3.922 -15.638  0.00  0.00    +0.049 A 
ATOM      5  C   UNK A   1     -11.501   3.130 -15.677  0.00  0.00    +0.140 A 
ATOM      6  C   UNK A   1     -11.598   1.802 -16.099  0.00  0.00    +0.108 A 
ENDROOT
BRANCH   5   7
ATOM      7  O   UNK A   1     -10.291   3.642 -15.294  0.00  0.00    -0.505 OA
ATOM      8  H   UNK A   1     -10.174   4.511 -15.716  0.00  0.00    +0.292 HD
ENDBRANCH   5   7
BRANCH   6   9
ATOM      9  C   UNK A   1     -10.379   0.910 -16.199  0.00  0.00    +0.214 C 
BRANCH   9  10
ATOM     10  O   UNK A   1      -9.720   0.688 -14.950  0.00  0.00    -0.389 OA
ATOM     11  H   UNK A   1      -9.146  -0.089 -15.089  0.00  0.00    +0.210 HD
ENDBRANCH   9  10
ENDBRANCH   6   9
TORSDOF 3
ENDMDL
MODEL 9
REMARK VINA RESULT:      -4.3     11.327     11.884
REMARK  Name = min_compound1.pdb
REMARK  3 active torsions:
REMARK  status: ('A' for Active; 'I' for Inactive)
REMARK    1  A    between atoms: _2  and  _7
REMARK    2  A    between atoms: _3  and  _9
REMARK    3  A    between atoms: _7  and  _8
REMARK                            x       y       z     vdW  Elec       q    Type
REMARK                         _______ _______ _______ _____ _____    ______ ____
ROOT
ATOM      1  N   UNK A   1     -15.590   1.469  -6.967  0.00  0.00    -0.254 NA
ATOM      2  C   UNK A   0     -16.608   1.228  -7.822  0.00  0.00    +0.111 A 
ATOM      3  C   UNK A   0     -17.035  -0.042  -8.172  0.00  0.00    +0.023 A 
ATOM      4  C   UNK A   1     -16.382  -1.136  -7.614  0.00  0.00    +0.049 A 
ATOM      5  C   UNK A   1     -15.329  -0.915  -6.733  0.00  0.00    +0.140 A 
ATOM      6  C   UNK A   1     -14.946   0.395  -6.434  0.00  0.00    +0.108 A 
ENDROOT
BRANCH   5   7
ATOM      7  O   UNK A   1     -14.662  -1.970  -6.172  0.00  0.00    -0.505 OA
ATOM      8  H   UNK A   1     -15.240  -2.383  -5.507  0.00  0.00    +0.292 HD
ENDBRANCH   5   7
BRANCH   6   9
ATOM      9  C   UNK A   1     -13.834   0.691  -5.450  0.00  0.00    +0.214 C 
BRANCH   9  10
ATOM     10  O   UNK A   1     -14.023   0.093  -4.166  0.00  0.00    -0.389 OA
ATOM     11  H   UNK A   1     -13.432   0.580  -3.560  0.00  0.00    +0.210 HD
ENDBRANCH   9  10
ENDBRANCH   6   9
TORSDOF 3
ENDMDL
