MODEL 1
REMARK VINA RESULT:      -8.6      0.000      0.000
REMARK  Name = min_compound925.pdb
REMARK  6 active torsions:
REMARK  status: ('A' for Active; 'I' for Inactive)
REMARK    1  A    between atoms: _1  and  _13
REMARK    2  A    between atoms: _6  and  _7
REMARK    3  A    between atoms: _9  and  _14
REMARK    4  A    between atoms: _12  and  _21
REMARK    5  A    between atoms: _14  and  _15
REMARK    6  A    between atoms: _21  and  _22
REMARK                            x       y       z     vdW  Elec       q    Type
REMARK                         _______ _______ _______ _____ _____    ______ ____
ROOT
ATOM      1  C   UNL     1     -12.888   3.986 -17.167  0.00  0.00    +0.127 C 
ATOM      2  N   UNL     1     -14.075   4.404 -16.319  0.00  0.00    -0.321 N 
ATOM      3  C   UNL     1     -14.657   5.688 -16.571  0.00  0.00    +0.076 C 
ATOM      4  C   UNL     1     -14.038   6.748 -17.143  0.00  0.00    -0.020 C 
ATOM      5  C   UNL     1     -12.640   6.512 -17.512  0.00  0.00    +0.004 C 
ATOM      6  C   UNL     1     -12.098   5.264 -17.495  0.00  0.00    +0.000 C 
ENDROOT
BRANCH   1  11
ATOM      7  C   UNL     1     -10.431   0.257 -16.169  0.00  0.00    -0.050 A 
ATOM      8  C   UNL     1      -9.625  -0.997 -16.003  0.00  0.00    +0.044 C 
ATOM      9  C   UNL     1     -11.344   0.348 -17.236  0.00  0.00    +0.004 A 
ATOM     10  C   UNL     1     -12.120   1.523 -17.513  0.00  0.00    +0.006 A 
ATOM     11  C   UNL     1     -12.068   2.702 -16.729  0.00  0.00    -0.023 A 
ATOM     12  C   UNL     1     -11.176   2.612 -15.645  0.00  0.00    +0.006 A 
ATOM     13  C   UNL     1     -10.374   1.430 -15.384  0.00  0.00    +0.004 A 
ENDBRANCH   1  11
BRANCH   2  14
ATOM     14  C   UNL     1     -14.868   3.275 -15.782  0.00  0.00    +0.140 C 
BRANCH  14  15
ATOM     15  C   UNL     1     -15.463   3.464 -14.399  0.00  0.00    -0.030 A 
ATOM     16  C   UNL     1     -16.623   2.763 -14.030  0.00  0.00    +0.005 A 
ATOM     17  C   UNL     1     -17.173   2.914 -12.756  0.00  0.00    +0.000 A 
ATOM     18  C   UNL     1     -16.572   3.769 -11.835  0.00  0.00    +0.000 A 
ATOM     19  C   UNL     1     -15.416   4.465 -12.185  0.00  0.00    +0.000 A 
ATOM     20  C   UNL     1     -14.857   4.307 -13.455  0.00  0.00    +0.005 A 
ENDBRANCH  14  15
ENDBRANCH   2  14
BRANCH   4  21
ATOM     21  C   UNL     1     -14.736   8.062 -17.338  0.00  0.00    +0.114 C 
BRANCH  21  22
ATOM     22  N   UNL     1     -15.434   9.375 -17.534  0.00  0.00    -0.326 NA
ATOM     23  H   UNL     1     -14.766  10.136 -17.411  0.00  0.00    +0.119 HD
ATOM     24  H   UNL     1     -15.825   9.415 -18.475  0.00  0.00    +0.119 HD
ENDBRANCH  21  22
ENDBRANCH   4  21
TORSDOF 5
ENDMDL
MODEL 2
REMARK VINA RESULT:      -7.8      1.781      5.679
REMARK  Name = min_compound925.pdb
REMARK  6 active torsions:
REMARK  status: ('A' for Active; 'I' for Inactive)
REMARK    1  A    between atoms: _1  and  _13
REMARK    2  A    between atoms: _6  and  _7
REMARK    3  A    between atoms: _9  and  _14
REMARK    4  A    between atoms: _12  and  _21
REMARK    5  A    between atoms: _14  and  _15
REMARK    6  A    between atoms: _21  and  _22
REMARK                            x       y       z     vdW  Elec       q    Type
REMARK                         _______ _______ _______ _____ _____    ______ ____
ROOT
ATOM      1  C   UNL     1     -14.408   4.761 -16.319  0.00  0.00    +0.127 C 
ATOM      2  N   UNL     1     -13.176   4.049 -16.846  0.00  0.00    -0.321 N 
ATOM      3  C   UNL     1     -12.674   4.444 -18.128  0.00  0.00    +0.076 C 
ATOM      4  C   UNL     1     -13.383   5.039 -19.116  0.00  0.00    -0.020 C 
ATOM      5  C   UNL     1     -14.795   5.271 -18.799  0.00  0.00    +0.004 C 
ATOM      6  C   UNL     1     -15.278   5.116 -17.536  0.00  0.00    +0.000 C 
ENDROOT
BRANCH   1  11
ATOM      7  C   UNL     1     -16.592   3.290 -12.576  0.00  0.00    -0.050 A 
ATOM      8  C   UNL     1     -17.309   2.964 -11.300  0.00  0.00    +0.044 C 
ATOM      9  C   UNL     1     -15.707   4.383 -12.604  0.00  0.00    +0.004 A 
ATOM     10  C   UNL     1     -15.016   4.809 -13.788  0.00  0.00    +0.006 A 
ATOM     11  C   UNL     1     -15.132   4.161 -15.042  0.00  0.00    -0.023 A 
ATOM     12  C   UNL     1     -15.997   3.052 -15.018  0.00  0.00    +0.006 A 
ATOM     13  C   UNL     1     -16.713   2.639 -13.825  0.00  0.00    +0.004 A 
ENDBRANCH   1  11
BRANCH   2  14
ATOM     14  C   UNL     1     -12.293   3.498 -15.793  0.00  0.00    +0.140 C 
BRANCH  14  15
ATOM     15  C   UNL     1     -11.810   2.073 -15.994  0.00  0.00    -0.030 A 
ATOM     16  C   UNL     1     -10.506   1.713 -15.617  0.00  0.00    +0.005 A 
ATOM     17  C   UNL     1     -10.052   0.403 -15.780  0.00  0.00    +0.000 A 
ATOM     18  C   UNL     1     -10.896  -0.563 -16.322  0.00  0.00    +0.000 A 
ATOM     19  C   UNL     1     -12.196  -0.222 -16.692  0.00  0.00    +0.000 A 
ATOM     20  C   UNL     1     -12.656   1.085 -16.520  0.00  0.00    +0.005 A 
ENDBRANCH  14  15
ENDBRANCH   2  14
BRANCH   4  21
ATOM     21  C   UNL     1     -12.763   5.390 -20.436  0.00  0.00    +0.114 C 
BRANCH  21  22
ATOM     22  N   UNL     1     -12.142   5.740 -21.756  0.00  0.00    -0.326 NA
ATOM     23  H   UNL     1     -11.716   6.665 -21.696  0.00  0.00    +0.119 HD
ATOM     24  H   UNL     1     -11.427   5.050 -21.989  0.00  0.00    +0.119 HD
ENDBRANCH  21  22
ENDBRANCH   4  21
TORSDOF 5
ENDMDL
MODEL 3
REMARK VINA RESULT:      -7.5      2.383      4.780
REMARK  Name = min_compound925.pdb
REMARK  6 active torsions:
REMARK  status: ('A' for Active; 'I' for Inactive)
REMARK    1  A    between atoms: _1  and  _13
REMARK    2  A    between atoms: _6  and  _7
REMARK    3  A    between atoms: _9  and  _14
REMARK    4  A    between atoms: _12  and  _21
REMARK    5  A    between atoms: _14  and  _15
REMARK    6  A    between atoms: _21  and  _22
REMARK                            x       y       z     vdW  Elec       q    Type
REMARK                         _______ _______ _______ _____ _____    ______ ____
ROOT
ATOM      1  C   UNL     1     -14.055   2.814 -16.367  0.00  0.00    +0.127 C 
ATOM      2  N   UNL     1     -14.553   3.111 -17.769  0.00  0.00    -0.321 N 
ATOM      3  C   UNL     1     -15.830   3.744 -17.904  0.00  0.00    +0.076 C 
ATOM      4  C   UNL     1     -16.837   3.715 -16.999  0.00  0.00    -0.020 C 
ATOM      5  C   UNL     1     -16.547   2.941 -15.789  0.00  0.00    +0.004 C 
ATOM      6  C   UNL     1     -15.291   2.499 -15.508  0.00  0.00    +0.000 C 
ENDROOT
BRANCH   1  11
ATOM      7  C   UNL     1     -10.429   0.029 -16.164  0.00  0.00    -0.050 A 
ATOM      8  C   UNL     1      -9.304  -0.961 -16.226  0.00  0.00    +0.044 C 
ATOM      9  C   UNL     1     -11.710  -0.361 -16.595  0.00  0.00    +0.004 A 
ATOM     10  C   UNL     1     -12.837   0.527 -16.627  0.00  0.00    +0.006 A 
ATOM     11  C   UNL     1     -12.785   1.879 -16.205  0.00  0.00    -0.023 A 
ATOM     12  C   UNL     1     -11.513   2.272 -15.749  0.00  0.00    +0.006 A 
ATOM     13  C   UNL     1     -10.370   1.377 -15.742  0.00  0.00    +0.004 A 
ENDBRANCH   1  11
BRANCH   2  14
ATOM     14  C   UNL     1     -13.479   3.289 -18.773  0.00  0.00    +0.140 C 
BRANCH  14  15
ATOM     15  C   UNL     1     -12.873   4.677 -18.875  0.00  0.00    -0.030 A 
ATOM     16  C   UNL     1     -12.846   5.344 -20.111  0.00  0.00    +0.005 A 
ATOM     17  C   UNL     1     -12.307   6.627 -20.219  0.00  0.00    +0.000 A 
ATOM     18  C   UNL     1     -11.787   7.259 -19.092  0.00  0.00    +0.000 A 
ATOM     19  C   UNL     1     -11.815   6.613 -17.857  0.00  0.00    +0.000 A 
ATOM     20  C   UNL     1     -12.364   5.334 -17.745  0.00  0.00    +0.005 A 
ENDBRANCH  14  15
ENDBRANCH   2  14
BRANCH   4  21
ATOM     21  C   UNL     1     -18.150   4.395 -17.252  0.00  0.00    +0.114 C 
BRANCH  21  22
ATOM     22  N   UNL     1     -19.463   5.075 -17.505  0.00  0.00    -0.326 NA
ATOM     23  H   UNL     1     -20.224   4.464 -17.209  0.00  0.00    +0.119 HD
ATOM     24  H   UNL     1     -19.501   5.947 -16.977  0.00  0.00    +0.119 HD
ENDBRANCH  21  22
ENDBRANCH   4  21
TORSDOF 5
ENDMDL
MODEL 4
REMARK VINA RESULT:      -7.3      1.971      5.692
REMARK  Name = min_compound925.pdb
REMARK  6 active torsions:
REMARK  status: ('A' for Active; 'I' for Inactive)
REMARK    1  A    between atoms: _1  and  _13
REMARK    2  A    between atoms: _6  and  _7
REMARK    3  A    between atoms: _9  and  _14
REMARK    4  A    between atoms: _12  and  _21
REMARK    5  A    between atoms: _14  and  _15
REMARK    6  A    between atoms: _21  and  _22
REMARK                            x       y       z     vdW  Elec       q    Type
REMARK                         _______ _______ _______ _____ _____    ______ ____
ROOT
ATOM      1  C   UNL     1     -14.829   5.026 -16.554  0.00  0.00    +0.127 C 
ATOM      2  N   UNL     1     -14.574   3.661 -15.943  0.00  0.00    -0.321 N 
ATOM      3  C   UNL     1     -15.351   3.286 -14.799  0.00  0.00    +0.076 C 
ATOM      4  C   UNL     1     -15.955   4.130 -13.931  0.00  0.00    -0.020 C 
ATOM      5  C   UNL     1     -15.758   5.552 -14.227  0.00  0.00    +0.004 C 
ATOM      6  C   UNL     1     -15.217   5.969 -15.403  0.00  0.00    +0.000 C 
ENDROOT
BRANCH   1  11
ATOM      7  C   UNL     1     -12.086   6.732 -19.795  0.00  0.00    -0.050 A 
ATOM      8  C   UNL     1     -11.322   7.327 -20.941  0.00  0.00    +0.044 C 
ATOM      9  C   UNL     1     -13.329   6.123 -20.043  0.00  0.00    +0.004 A 
ATOM     10  C   UNL     1     -14.160   5.574 -19.010  0.00  0.00    +0.006 A 
ATOM     11  C   UNL     1     -13.805   5.565 -17.638  0.00  0.00    -0.023 A 
ATOM     12  C   UNL     1     -12.552   6.151 -17.383  0.00  0.00    +0.006 A 
ATOM     13  C   UNL     1     -11.726   6.727 -18.429  0.00  0.00    +0.004 A 
ENDBRANCH   1  11
BRANCH   2  14
ATOM     14  C   UNL     1     -14.039   2.658 -16.891  0.00  0.00    +0.140 C 
BRANCH  14  15
ATOM     15  C   UNL     1     -12.733   1.989 -16.503  0.00  0.00    -0.030 A 
ATOM     16  C   UNL     1     -12.487   0.657 -16.875  0.00  0.00    +0.005 A 
ATOM     17  C   UNL     1     -11.284   0.033 -16.540  0.00  0.00    +0.000 A 
ATOM     18  C   UNL     1     -10.313   0.733 -15.827  0.00  0.00    +0.000 A 
ATOM     19  C   UNL     1     -10.540   2.058 -15.458  0.00  0.00    +0.000 A 
ATOM     20  C   UNL     1     -11.738   2.688 -15.803  0.00  0.00    +0.005 A 
ENDBRANCH  14  15
ENDBRANCH   2  14
BRANCH   4  21
ATOM     21  C   UNL     1     -16.728   3.630 -12.747  0.00  0.00    +0.114 C 
BRANCH  21  22
ATOM     22  N   UNL     1     -17.500   3.129 -11.562  0.00  0.00    -0.326 NA
ATOM     23  H   UNL     1     -18.344   3.691 -11.445  0.00  0.00    +0.119 HD
ATOM     24  H   UNL     1     -17.759   2.154 -11.713  0.00  0.00    +0.119 HD
ENDBRANCH  21  22
ENDBRANCH   4  21
TORSDOF 5
ENDMDL
MODEL 5
REMARK VINA RESULT:      -7.3      1.921      5.068
REMARK  Name = min_compound925.pdb
REMARK  6 active torsions:
REMARK  status: ('A' for Active; 'I' for Inactive)
REMARK    1  A    between atoms: _1  and  _13
REMARK    2  A    between atoms: _6  and  _7
REMARK    3  A    between atoms: _9  and  _14
REMARK    4  A    between atoms: _12  and  _21
REMARK    5  A    between atoms: _14  and  _15
REMARK    6  A    between atoms: _21  and  _22
REMARK                            x       y       z     vdW  Elec       q    Type
REMARK                         _______ _______ _______ _____ _____    ______ ____
ROOT
ATOM      1  C   UNL     1     -13.375   3.782 -15.745  0.00  0.00    +0.127 C 
ATOM      2  N   UNL     1     -13.483   4.940 -16.720  0.00  0.00    -0.321 N 
ATOM      3  C   UNL     1     -14.526   5.898 -16.506  0.00  0.00    +0.076 C 
ATOM      4  C   UNL     1     -15.682   5.685 -15.835  0.00  0.00    -0.020 C 
ATOM      5  C   UNL     1     -15.838   4.328 -15.305  0.00  0.00    +0.004 C 
ATOM      6  C   UNL     1     -14.804   3.444 -15.289  0.00  0.00    +0.000 C 
ENDROOT
BRANCH   1  11
ATOM      7  C   UNL     1     -10.577   0.248 -16.535  0.00  0.00    -0.050 A 
ATOM      8  C   UNL     1      -9.616  -0.899 -16.637  0.00  0.00    +0.044 C 
ATOM      9  C   UNL     1     -10.318   1.279 -15.614  0.00  0.00    +0.004 A 
ATOM     10  C   UNL     1     -11.202   2.389 -15.402  0.00  0.00    +0.006 A 
ATOM     11  C   UNL     1     -12.413   2.578 -16.114  0.00  0.00    -0.023 A 
ATOM     12  C   UNL     1     -12.668   1.564 -17.056  0.00  0.00    +0.006 A 
ATOM     13  C   UNL     1     -11.783   0.430 -17.249  0.00  0.00    +0.004 A 
ENDBRANCH   1  11
BRANCH   2  14
ATOM     14  C   UNL     1     -12.208   5.302 -17.380  0.00  0.00    +0.140 C 
BRANCH  14  15
ATOM     15  C   UNL     1     -12.288   5.667 -18.851  0.00  0.00    -0.030 A 
ATOM     16  C   UNL     1     -11.639   6.819 -19.326  0.00  0.00    +0.005 A 
ATOM     17  C   UNL     1     -11.689   7.160 -20.679  0.00  0.00    +0.000 A 
ATOM     18  C   UNL     1     -12.391   6.354 -21.573  0.00  0.00    +0.000 A 
ATOM     19  C   UNL     1     -13.033   5.204 -21.117  0.00  0.00    +0.000 A 
ATOM     20  C   UNL     1     -12.975   4.855 -19.766  0.00  0.00    +0.005 A 
ENDBRANCH  14  15
ENDBRANCH   2  14
BRANCH   4  21
ATOM     21  C   UNL     1     -16.723   6.755 -15.690  0.00  0.00    +0.114 C 
BRANCH  21  22
ATOM     22  N   UNL     1     -17.764   7.826 -15.546  0.00  0.00    -0.326 NA
ATOM     23  H   UNL     1     -17.307   8.734 -15.460  0.00  0.00    +0.119 HD
ATOM     24  H   UNL     1     -18.368   7.825 -16.368  0.00  0.00    +0.119 HD
ENDBRANCH  21  22
ENDBRANCH   4  21
TORSDOF 5
ENDMDL
MODEL 6
REMARK VINA RESULT:      -7.1      1.420      2.393
REMARK  Name = min_compound925.pdb
REMARK  6 active torsions:
REMARK  status: ('A' for Active; 'I' for Inactive)
REMARK    1  A    between atoms: _1  and  _13
REMARK    2  A    between atoms: _6  and  _7
REMARK    3  A    between atoms: _9  and  _14
REMARK    4  A    between atoms: _12  and  _21
REMARK    5  A    between atoms: _14  and  _15
REMARK    6  A    between atoms: _21  and  _22
REMARK                            x       y       z     vdW  Elec       q    Type
REMARK                         _______ _______ _______ _____ _____    ______ ____
ROOT
ATOM      1  C   UNL     1     -14.194   5.192 -16.777  0.00  0.00    +0.127 C 
ATOM      2  N   UNL     1     -14.852   5.222 -15.411  0.00  0.00    -0.321 N 
ATOM      3  C   UNL     1     -15.655   6.361 -15.081  0.00  0.00    +0.076 C 
ATOM      4  C   UNL     1     -15.556   7.595 -15.627  0.00  0.00    -0.020 C 
ATOM      5  C   UNL     1     -14.505   7.731 -16.639  0.00  0.00    +0.004 C 
ATOM      6  C   UNL     1     -13.857   6.647 -17.146  0.00  0.00    +0.000 C 
ENDROOT
BRANCH   1  11
ATOM      7  C   UNL     1     -10.967   1.991 -17.307  0.00  0.00    -0.050 A 
ATOM      8  C   UNL     1      -9.855   0.985 -17.332  0.00  0.00    +0.044 C 
ATOM      9  C   UNL     1     -10.791   3.189 -16.591  0.00  0.00    +0.004 A 
ATOM     10  C   UNL     1     -11.813   4.188 -16.460  0.00  0.00    +0.006 A 
ATOM     11  C   UNL     1     -13.094   4.085 -17.057  0.00  0.00    -0.023 A 
ATOM     12  C   UNL     1     -13.271   2.901 -17.795  0.00  0.00    +0.006 A 
ATOM     13  C   UNL     1     -12.243   1.882 -17.904  0.00  0.00    +0.004 A 
ENDBRANCH   1  11
BRANCH   2  14
ATOM     14  C   UNL     1     -15.109   3.885 -14.829  0.00  0.00    +0.140 C 
BRANCH  14  15
ATOM     15  C   UNL     1     -15.613   3.856 -13.398  0.00  0.00    -0.030 A 
ATOM     16  C   UNL     1     -14.916   4.545 -12.392  0.00  0.00    +0.005 A 
ATOM     17  C   UNL     1     -15.376   4.543 -11.074  0.00  0.00    +0.000 A 
ATOM     18  C   UNL     1     -16.538   3.848 -10.744  0.00  0.00    +0.000 A 
ATOM     19  C   UNL     1     -17.245   3.166 -11.734  0.00  0.00    +0.000 A 
ATOM     20  C   UNL     1     -16.793   3.178 -13.055  0.00  0.00    +0.005 A 
ENDBRANCH  14  15
ENDBRANCH   2  14
BRANCH   4  21
ATOM     21  C   UNL     1     -16.434   8.729 -15.188  0.00  0.00    +0.114 C 
BRANCH  21  22
ATOM     22  N   UNL     1     -17.313   9.863 -14.750  0.00  0.00    -0.326 NA
ATOM     23  H   UNL     1     -18.261   9.518 -14.597  0.00  0.00    +0.119 HD
ATOM     24  H   UNL     1     -16.950  10.259 -13.883  0.00  0.00    +0.119 HD
ENDBRANCH  21  22
ENDBRANCH   4  21
TORSDOF 5
ENDMDL
MODEL 7
REMARK VINA RESULT:      -7.1      2.287      4.660
REMARK  Name = min_compound925.pdb
REMARK  6 active torsions:
REMARK  status: ('A' for Active; 'I' for Inactive)
REMARK    1  A    between atoms: _1  and  _13
REMARK    2  A    between atoms: _6  and  _7
REMARK    3  A    between atoms: _9  and  _14
REMARK    4  A    between atoms: _12  and  _21
REMARK    5  A    between atoms: _14  and  _15
REMARK    6  A    between atoms: _21  and  _22
REMARK                            x       y       z     vdW  Elec       q    Type
REMARK                         _______ _______ _______ _____ _____    ______ ____
ROOT
ATOM      1  C   UNL     1     -13.295   3.858 -15.731  0.00  0.00    +0.127 C 
ATOM      2  N   UNL     1     -13.811   4.545 -16.981  0.00  0.00    -0.321 N 
ATOM      3  C   UNL     1     -14.842   5.527 -16.826  0.00  0.00    +0.076 C 
ATOM      4  C   UNL     1     -15.717   5.612 -15.797  0.00  0.00    -0.020 C 
ATOM      5  C   UNL     1     -15.561   4.572 -14.776  0.00  0.00    +0.004 C 
ATOM      6  C   UNL     1     -14.479   3.748 -14.756  0.00  0.00    +0.000 C 
ENDROOT
BRANCH   1  11
ATOM      7  C   UNL     1     -10.703   0.164 -16.489  0.00  0.00    -0.050 A 
ATOM      8  C   UNL     1      -9.957  -1.085 -16.858  0.00  0.00    +0.044 C 
ATOM      9  C   UNL     1     -12.093   0.218 -16.699  0.00  0.00    +0.004 A 
ATOM     10  C   UNL     1     -12.886   1.383 -16.430  0.00  0.00    +0.006 A 
ATOM     11  C   UNL     1     -12.360   2.589 -15.904  0.00  0.00    -0.023 A 
ATOM     12  C   UNL     1     -10.974   2.536 -15.668  0.00  0.00    +0.006 A 
ATOM     13  C   UNL     1     -10.171   1.363 -15.965  0.00  0.00    +0.004 A 
ENDBRANCH   1  11
BRANCH   2  14
ATOM     14  C   UNL     1     -12.836   4.599 -18.094  0.00  0.00    +0.140 C 
BRANCH  14  15
ATOM     15  C   UNL     1     -13.277   3.985 -19.410  0.00  0.00    -0.030 A 
ATOM     16  C   UNL     1     -13.506   2.602 -19.498  0.00  0.00    +0.005 A 
ATOM     17  C   UNL     1     -13.928   2.023 -20.697  0.00  0.00    +0.000 A 
ATOM     18  C   UNL     1     -14.124   2.821 -21.822  0.00  0.00    +0.000 A 
ATOM     19  C   UNL     1     -13.909   4.196 -21.747  0.00  0.00    +0.000 A 
ATOM     20  C   UNL     1     -13.498   4.778 -20.546  0.00  0.00    +0.005 A 
ENDBRANCH  14  15
ENDBRANCH   2  14
BRANCH   4  21
ATOM     21  C   UNL     1     -16.779   6.671 -15.745  0.00  0.00    +0.114 C 
BRANCH  21  22
ATOM     22  N   UNL     1     -17.840   7.729 -15.693  0.00  0.00    -0.326 NA
ATOM     23  H   UNL     1     -17.901   8.103 -14.746  0.00  0.00    +0.119 HD
ATOM     24  H   UNL     1     -17.603   8.481 -16.341  0.00  0.00    +0.119 HD
ENDBRANCH  21  22
ENDBRANCH   4  21
TORSDOF 5
ENDMDL
MODEL 8
REMARK VINA RESULT:      -6.7      1.575      2.304
REMARK  Name = min_compound925.pdb
REMARK  6 active torsions:
REMARK  status: ('A' for Active; 'I' for Inactive)
REMARK    1  A    between atoms: _1  and  _13
REMARK    2  A    between atoms: _6  and  _7
REMARK    3  A    between atoms: _9  and  _14
REMARK    4  A    between atoms: _12  and  _21
REMARK    5  A    between atoms: _14  and  _15
REMARK    6  A    between atoms: _21  and  _22
REMARK                            x       y       z     vdW  Elec       q    Type
REMARK                         _______ _______ _______ _____ _____    ______ ____
ROOT
ATOM      1  C   UNL     1     -13.982   5.162 -18.124  0.00  0.00    +0.127 C 
ATOM      2  N   UNL     1     -15.330   5.429 -17.480  0.00  0.00    -0.321 N 
ATOM      3  C   UNL     1     -15.834   6.769 -17.518  0.00  0.00    +0.076 C 
ATOM      4  C   UNL     1     -15.098   7.897 -17.651  0.00  0.00    -0.020 C 
ATOM      5  C   UNL     1     -13.653   7.674 -17.751  0.00  0.00    +0.004 C 
ATOM      6  C   UNL     1     -13.133   6.430 -17.934  0.00  0.00    +0.000 C 
ENDROOT
BRANCH   1  11
ATOM      7  C   UNL     1     -12.140   1.093 -17.127  0.00  0.00    -0.050 A 
ATOM      8  C   UNL     1     -11.594  -0.220 -16.649  0.00  0.00    +0.044 C 
ATOM      9  C   UNL     1     -12.265   2.156 -16.215  0.00  0.00    +0.004 A 
ATOM     10  C   UNL     1     -12.825   3.431 -16.560  0.00  0.00    +0.006 A 
ATOM     11  C   UNL     1     -13.288   3.761 -17.858  0.00  0.00    -0.023 A 
ATOM     12  C   UNL     1     -13.145   2.712 -18.784  0.00  0.00    +0.006 A 
ATOM     13  C   UNL     1     -12.600   1.415 -18.424  0.00  0.00    +0.004 A 
ENDBRANCH   1  11
BRANCH   2  14
ATOM     14  C   UNL     1     -16.228   4.253 -17.436  0.00  0.00    +0.140 C 
BRANCH  14  15
ATOM     15  C   UNL     1     -16.665   3.788 -16.059  0.00  0.00    -0.030 A 
ATOM     16  C   UNL     1     -17.746   4.412 -15.415  0.00  0.00    +0.005 A 
ATOM     17  C   UNL     1     -18.171   3.985 -14.156  0.00  0.00    +0.000 A 
ATOM     18  C   UNL     1     -17.519   2.929 -13.523  0.00  0.00    +0.000 A 
ATOM     19  C   UNL     1     -16.450   2.295 -14.153  0.00  0.00    +0.000 A 
ATOM     20  C   UNL     1     -16.030   2.713 -15.418  0.00  0.00    +0.005 A 
ENDBRANCH  14  15
ENDBRANCH   2  14
BRANCH   4  21
ATOM     21  C   UNL     1     -15.728   9.258 -17.654  0.00  0.00    +0.114 C 
BRANCH  21  22
ATOM     22  N   UNL     1     -16.358  10.620 -17.657  0.00  0.00    -0.326 NA
ATOM     23  H   UNL     1     -15.651  11.321 -17.879  0.00  0.00    +0.119 HD
ATOM     24  H   UNL     1     -17.099  10.650 -18.357  0.00  0.00    +0.119 HD
ENDBRANCH  21  22
ENDBRANCH   4  21
TORSDOF 5
ENDMDL
MODEL 9
REMARK VINA RESULT:      -6.7      2.383      5.883
REMARK  Name = min_compound925.pdb
REMARK  6 active torsions:
REMARK  status: ('A' for Active; 'I' for Inactive)
REMARK    1  A    between atoms: _1  and  _13
REMARK    2  A    between atoms: _6  and  _7
REMARK    3  A    between atoms: _9  and  _14
REMARK    4  A    between atoms: _12  and  _21
REMARK    5  A    between atoms: _14  and  _15
REMARK    6  A    between atoms: _21  and  _22
REMARK                            x       y       z     vdW  Elec       q    Type
REMARK                         _______ _______ _______ _____ _____    ______ ____
ROOT
ATOM      1  C   UNL     1     -12.968   3.319 -17.808  0.00  0.00    +0.127 C 
ATOM      2  N   UNL     1     -12.856   2.928 -16.346  0.00  0.00    -0.321 N 
ATOM      3  C   UNL     1     -11.850   1.974 -15.986  0.00  0.00    +0.076 C 
ATOM      4  C   UNL     1     -11.288   1.056 -16.806  0.00  0.00    -0.020 C 
ATOM      5  C   UNL     1     -11.798   1.072 -18.180  0.00  0.00    +0.004 C 
ATOM      6  C   UNL     1     -12.589   2.081 -18.636  0.00  0.00    +0.000 C 
ENDROOT
BRANCH   1  11
ATOM      7  C   UNL     1     -16.464   5.850 -19.329  0.00  0.00    -0.050 A 
ATOM      8  C   UNL     1     -17.498   6.775 -19.899  0.00  0.00    +0.044 C 
ATOM      9  C   UNL     1     -15.193   6.359 -19.006  0.00  0.00    +0.004 A 
ATOM     10  C   UNL     1     -14.121   5.547 -18.508  0.00  0.00    +0.006 A 
ATOM     11  C   UNL     1     -14.235   4.155 -18.266  0.00  0.00    -0.023 A 
ATOM     12  C   UNL     1     -15.510   3.641 -18.563  0.00  0.00    +0.006 A 
ATOM     13  C   UNL     1     -16.585   4.463 -19.091  0.00  0.00    +0.004 A 
ENDBRANCH   1  11
BRANCH   2  14
ATOM     14  C   UNL     1     -13.333   3.961 -15.400  0.00  0.00    +0.140 C 
BRANCH  14  15
ATOM     15  C   UNL     1     -14.607   3.644 -14.638  0.00  0.00    -0.030 A 
ATOM     16  C   UNL     1     -14.921   4.352 -13.466  0.00  0.00    +0.005 A 
ATOM     17  C   UNL     1     -16.096   4.083 -12.763  0.00  0.00    +0.000 A 
ATOM     18  C   UNL     1     -16.973   3.102 -13.222  0.00  0.00    +0.000 A 
ATOM     19  C   UNL     1     -16.678   2.398 -14.388  0.00  0.00    +0.000 A 
ATOM     20  C   UNL     1     -15.508   2.673 -15.100  0.00  0.00    +0.005 A 
ENDBRANCH  14  15
ENDBRANCH   2  14
BRANCH   4  21
ATOM     21  C   UNL     1     -10.256   0.083 -16.317  0.00  0.00    +0.114 C 
BRANCH  21  22
ATOM     22  N   UNL     1      -9.224  -0.889 -15.829  0.00  0.00    -0.326 NA
ATOM     23  H   UNL     1      -8.293  -0.535 -16.048  0.00  0.00    +0.119 HD
ATOM     24  H   UNL     1      -9.316  -1.004 -14.819  0.00  0.00    +0.119 HD
ENDBRANCH  21  22
ENDBRANCH   4  21
TORSDOF 5
ENDMDL
