MODEL 1
REMARK VINA RESULT:      -5.9      0.000      0.000
REMARK  Name = min_compound957.pdb
REMARK  7 active torsions:
REMARK  status: ('A' for Active; 'I' for Inactive)
REMARK    1  A    between atoms: _2  and  _14
REMARK    2  A    between atoms: _4  and  _18
REMARK    3  A    between atoms: _5  and  _17
REMARK    4  A    between atoms: _6  and  _18
REMARK    5  A    between atoms: _14  and  _15
REMARK    6  A    between atoms: _14  and  _16
REMARK    7  A    between atoms: _17  and  _19
REMARK                            x       y       z     vdW  Elec       q    Type
REMARK                         _______ _______ _______ _____ _____    ______ ____
ROOT
ATOM      1  N   UNL     1     -16.296   4.401 -16.336  0.00  0.00    -0.240 NA
ATOM      2  C   UNL     1     -15.626   4.883 -17.419  0.00  0.00    +0.136 A 
ATOM      3  C   UNL     1     -14.262   4.754 -17.259  0.00  0.00    +0.064 A 
ATOM      4  N   UNL     1     -14.117   4.036 -16.087  0.00  0.00    -0.325 N 
ATOM      5  C   UNL     1     -15.375   3.969 -15.500  0.00  0.00    +0.113 A 
ENDROOT
BRANCH   5   6
ATOM      6  C   UNL     1     -15.647   3.506 -14.091  0.00  0.00    +0.049 C 
ATOM      7  C   UNL     1     -16.981   2.770 -14.010  0.00  0.00    +0.015 C 
ATOM      8  C   UNL     1     -15.631   4.691 -13.121  0.00  0.00    +0.015 C 
ENDBRANCH   5   6
BRANCH   3   9
ATOM      9  C   UNL     1     -13.181   5.281 -18.117  0.00  0.00    +0.210 C 
BRANCH   9  10
ATOM     10  O   UNL     1     -12.612   6.373 -17.415  0.00  0.00    -0.389 OA
ATOM     11  H   UNL     1     -12.300   6.020 -16.562  0.00  0.00    +0.210 HD
ENDBRANCH   9  10
ENDBRANCH   3   9
BRANCH   4  12
ATOM     12  C   UNL     1     -12.885   3.542 -15.463  0.00  0.00    +0.161 C 
BRANCH  12  13
ATOM     13  C   UNL     1     -12.100   2.493 -16.225  0.00  0.00    +0.009 A 
ATOM     14  C   UNL     1     -12.613   1.211 -16.512  0.00  0.00    +0.047 A 
ATOM     15  C   UNL     1     -11.862   0.271 -17.234  0.00  0.00    +0.020 A 
ATOM     16  C   UNL     1     -10.567   0.565 -17.643  0.00  0.00    +0.003 A 
ATOM     17  C   UNL     1     -10.013   1.795 -17.314  0.00  0.00    +0.020 A 
ATOM     18 CL   UNL     1     -14.166   0.682 -15.970  0.00  0.00    -0.083 Cl
ATOM     19  C   UNL     1     -10.764   2.745 -16.608  0.00  0.00    +0.047 A 
ATOM     20 CL   UNL     1      -9.943   4.217 -16.207  0.00  0.00    -0.083 Cl
ENDBRANCH  12  13
ENDBRANCH   4  12
TORSDOF 5
ENDMDL
MODEL 2
REMARK VINA RESULT:      -5.8      0.580      2.178
REMARK  Name = min_compound957.pdb
REMARK  7 active torsions:
REMARK  status: ('A' for Active; 'I' for Inactive)
REMARK    1  A    between atoms: _2  and  _14
REMARK    2  A    between atoms: _4  and  _18
REMARK    3  A    between atoms: _5  and  _17
REMARK    4  A    between atoms: _6  and  _18
REMARK    5  A    between atoms: _14  and  _15
REMARK    6  A    between atoms: _14  and  _16
REMARK    7  A    between atoms: _17  and  _19
REMARK                            x       y       z     vdW  Elec       q    Type
REMARK                         _______ _______ _______ _____ _____    ______ ____
ROOT
ATOM      1  N   UNL     1     -16.198   4.623 -16.176  0.00  0.00    -0.240 NA
ATOM      2  C   UNL     1     -15.482   5.144 -17.211  0.00  0.00    +0.136 A 
ATOM      3  C   UNL     1     -14.128   4.951 -17.027  0.00  0.00    +0.064 A 
ATOM      4  N   UNL     1     -14.041   4.156 -15.899  0.00  0.00    -0.325 N 
ATOM      5  C   UNL     1     -15.315   4.103 -15.347  0.00  0.00    +0.113 A 
ENDROOT
BRANCH   5   6
ATOM      6  C   UNL     1     -15.641   3.565 -13.978  0.00  0.00    +0.049 C 
ATOM      7  C   UNL     1     -16.992   2.855 -13.980  0.00  0.00    +0.015 C 
ATOM      8  C   UNL     1     -15.632   4.691 -12.939  0.00  0.00    +0.015 C 
ENDBRANCH   5   6
BRANCH   3   9
ATOM      9  C   UNL     1     -13.005   5.486 -17.824  0.00  0.00    +0.210 C 
BRANCH   9  10
ATOM     10  O   UNL     1     -12.822   4.587 -18.906  0.00  0.00    -0.389 OA
ATOM     11  H   UNL     1     -12.391   3.795 -18.536  0.00  0.00    +0.210 HD
ENDBRANCH   9  10
ENDBRANCH   3   9
BRANCH   4  12
ATOM     12  C   UNL     1     -12.846   3.575 -15.279  0.00  0.00    +0.161 C 
BRANCH  12  13
ATOM     13  C   UNL     1     -12.084   2.542 -16.086  0.00  0.00    +0.009 A 
ATOM     14  C   UNL     1     -10.786   2.770 -16.590  0.00  0.00    +0.047 A 
ATOM     15  C   UNL     1     -10.105   1.784 -17.319  0.00  0.00    +0.020 A 
ATOM     16  C   UNL     1     -10.716   0.570 -17.607  0.00  0.00    +0.003 A 
ATOM     17  C   UNL     1     -12.018   0.346 -17.181  0.00  0.00    +0.020 A 
ATOM     18 CL   UNL     1      -9.957   4.273 -16.393  0.00  0.00    -0.083 Cl
ATOM     19  C   UNL     1     -12.698   1.321 -16.437  0.00  0.00    +0.047 A 
ATOM     20 CL   UNL     1     -14.336   0.947 -16.015  0.00  0.00    -0.083 Cl
ENDBRANCH  12  13
ENDBRANCH   4  12
TORSDOF 5
ENDMDL
MODEL 3
REMARK VINA RESULT:      -5.8     10.480     12.717
REMARK  Name = min_compound957.pdb
REMARK  7 active torsions:
REMARK  status: ('A' for Active; 'I' for Inactive)
REMARK    1  A    between atoms: _2  and  _14
REMARK    2  A    between atoms: _4  and  _18
REMARK    3  A    between atoms: _5  and  _17
REMARK    4  A    between atoms: _6  and  _18
REMARK    5  A    between atoms: _14  and  _15
REMARK    6  A    between atoms: _14  and  _16
REMARK    7  A    between atoms: _17  and  _19
REMARK                            x       y       z     vdW  Elec       q    Type
REMARK                         _______ _______ _______ _____ _____    ______ ____
ROOT
ATOM      1  N   UNL     1     -18.309   0.230  -7.332  0.00  0.00    -0.240 NA
ATOM      2  C   UNL     1     -19.060  -0.661  -6.626  0.00  0.00    +0.136 A 
ATOM      3  C   UNL     1     -18.839  -0.534  -5.270  0.00  0.00    +0.064 A 
ATOM      4  N   UNL     1     -18.024   0.576  -5.153  0.00  0.00    -0.325 N 
ATOM      5  C   UNL     1     -17.624   0.916  -6.440  0.00  0.00    +0.113 A 
ENDROOT
BRANCH   5   6
ATOM      6  C   UNL     1     -16.531   1.900  -6.773  0.00  0.00    +0.049 C 
ATOM      7  C   UNL     1     -17.021   2.935  -7.781  0.00  0.00    +0.015 C 
ATOM      8  C   UNL     1     -15.296   1.172  -7.312  0.00  0.00    +0.015 C 
ENDBRANCH   5   6
BRANCH   3   9
ATOM      9  C   UNL     1     -19.329  -1.395  -4.174  0.00  0.00    +0.210 C 
BRANCH   9  10
ATOM     10  O   UNL     1     -18.772  -2.680  -4.398  0.00  0.00    -0.389 OA
ATOM     11  H   UNL     1     -18.289  -2.916  -3.585  0.00  0.00    +0.210 HD
ENDBRANCH   9  10
ENDBRANCH   3   9
BRANCH   4  12
ATOM     12  C   UNL     1     -17.530   1.224  -3.934  0.00  0.00    +0.161 C 
BRANCH  12  13
ATOM     13  C   UNL     1     -16.027   1.293  -3.750  0.00  0.00    +0.009 A 
ATOM     14  C   UNL     1     -15.243   0.165  -3.430  0.00  0.00    +0.047 A 
ATOM     15  C   UNL     1     -13.851   0.263  -3.284  0.00  0.00    +0.020 A 
ATOM     16  C   UNL     1     -13.213   1.492  -3.401  0.00  0.00    +0.003 A 
ATOM     17  C   UNL     1     -13.970   2.630  -3.648  0.00  0.00    +0.020 A 
ATOM     18 CL   UNL     1     -15.923  -1.399  -3.153  0.00  0.00    -0.083 Cl
ATOM     19  C   UNL     1     -15.359   2.535  -3.813  0.00  0.00    +0.047 A 
ATOM     20 CL   UNL     1     -16.198   4.031  -4.058  0.00  0.00    -0.083 Cl
ENDBRANCH  12  13
ENDBRANCH   4  12
TORSDOF 5
ENDMDL
MODEL 4
REMARK VINA RESULT:      -5.7      2.343      3.196
REMARK  Name = min_compound957.pdb
REMARK  7 active torsions:
REMARK  status: ('A' for Active; 'I' for Inactive)
REMARK    1  A    between atoms: _2  and  _14
REMARK    2  A    between atoms: _4  and  _18
REMARK    3  A    between atoms: _5  and  _17
REMARK    4  A    between atoms: _6  and  _18
REMARK    5  A    between atoms: _14  and  _15
REMARK    6  A    between atoms: _14  and  _16
REMARK    7  A    between atoms: _17  and  _19
REMARK                            x       y       z     vdW  Elec       q    Type
REMARK                         _______ _______ _______ _____ _____    ______ ____
ROOT
ATOM      1  N   UNL     1     -16.540   3.826 -17.452  0.00  0.00    -0.240 NA
ATOM      2  C   UNL     1     -16.523   4.189 -18.764  0.00  0.00    +0.136 A 
ATOM      3  C   UNL     1     -15.319   3.864 -19.355  0.00  0.00    +0.064 A 
ATOM      4  N   UNL     1     -14.639   3.151 -18.387  0.00  0.00    -0.325 N 
ATOM      5  C   UNL     1     -15.367   3.276 -17.211  0.00  0.00    +0.113 A 
ENDROOT
BRANCH   5   6
ATOM      6  C   UNL     1     -14.874   2.878 -15.843  0.00  0.00    +0.049 C 
ATOM      7  C   UNL     1     -15.906   2.017 -15.122  0.00  0.00    +0.015 C 
ATOM      8  C   UNL     1     -14.538   4.119 -15.009  0.00  0.00    +0.015 C 
ENDBRANCH   5   6
BRANCH   3   9
ATOM      9  C   UNL     1     -14.834   4.215 -20.706  0.00  0.00    +0.210 C 
BRANCH   9  10
ATOM     10  O   UNL     1     -15.110   3.096 -21.531  0.00  0.00    -0.389 OA
ATOM     11  H   UNL     1     -14.359   2.485 -21.427  0.00  0.00    +0.210 HD
ENDBRANCH   9  10
ENDBRANCH   3   9
BRANCH   4  12
ATOM     12  C   UNL     1     -13.332   2.491 -18.486  0.00  0.00    +0.161 C 
BRANCH  12  13
ATOM     13  C   UNL     1     -12.259   2.938 -17.513  0.00  0.00    +0.009 A 
ATOM     14  C   UNL     1     -11.712   4.238 -17.521  0.00  0.00    +0.047 A 
ATOM     15  C   UNL     1     -10.731   4.621 -16.594  0.00  0.00    +0.020 A 
ATOM     16  C   UNL     1     -10.235   3.707 -15.672  0.00  0.00    +0.003 A 
ATOM     17  C   UNL     1     -10.707   2.401 -15.687  0.00  0.00    +0.020 A 
ATOM     18 CL   UNL     1     -12.164   5.436 -18.681  0.00  0.00    -0.083 Cl
ATOM     19  C   UNL     1     -11.701   2.017 -16.600  0.00  0.00    +0.047 A 
ATOM     20 CL   UNL     1     -12.164   0.349 -16.559  0.00  0.00    -0.083 Cl
ENDBRANCH  12  13
ENDBRANCH   4  12
TORSDOF 5
ENDMDL
MODEL 5
REMARK VINA RESULT:      -5.6     10.905     12.416
REMARK  Name = min_compound957.pdb
REMARK  7 active torsions:
REMARK  status: ('A' for Active; 'I' for Inactive)
REMARK    1  A    between atoms: _2  and  _14
REMARK    2  A    between atoms: _4  and  _18
REMARK    3  A    between atoms: _5  and  _17
REMARK    4  A    between atoms: _6  and  _18
REMARK    5  A    between atoms: _14  and  _15
REMARK    6  A    between atoms: _14  and  _16
REMARK    7  A    between atoms: _17  and  _19
REMARK                            x       y       z     vdW  Elec       q    Type
REMARK                         _______ _______ _______ _____ _____    ______ ____
ROOT
ATOM      1  N   UNL     1     -18.725  -0.178  -7.407  0.00  0.00    -0.240 NA
ATOM      2  C   UNL     1     -17.459  -0.531  -7.765  0.00  0.00    +0.136 A 
ATOM      3  C   UNL     1     -16.592  -0.428  -6.697  0.00  0.00    +0.064 A 
ATOM      4  N   UNL     1     -17.404  -0.131  -5.619  0.00  0.00    -0.325 N 
ATOM      5  C   UNL     1     -18.666   0.143  -6.131  0.00  0.00    +0.113 A 
ENDROOT
BRANCH   5   6
ATOM      6  C   UNL     1     -19.799   0.760  -5.350  0.00  0.00    +0.049 C 
ATOM      7  C   UNL     1     -21.087  -0.035  -5.543  0.00  0.00    +0.015 C 
ATOM      8  C   UNL     1     -20.006   2.220  -5.764  0.00  0.00    +0.015 C 
ENDBRANCH   5   6
BRANCH   3   9
ATOM      9  C   UNL     1     -15.121  -0.568  -6.689  0.00  0.00    +0.210 C 
BRANCH   9  10
ATOM     10  O   UNL     1     -14.853  -1.924  -6.373  0.00  0.00    -0.389 OA
ATOM     11  H   UNL     1     -13.890  -1.992  -6.245  0.00  0.00    +0.210 HD
ENDBRANCH   9  10
ENDBRANCH   3   9
BRANCH   4  12
ATOM     12  C   UNL     1     -17.032   0.018  -4.208  0.00  0.00    +0.161 C 
BRANCH  12  13
ATOM     13  C   UNL     1     -15.719   0.713  -3.910  0.00  0.00    +0.009 A 
ATOM     14  C   UNL     1     -14.593   0.035  -3.399  0.00  0.00    +0.047 A 
ATOM     15  C   UNL     1     -13.387   0.708  -3.151  0.00  0.00    +0.020 A 
ATOM     16  C   UNL     1     -13.288   2.079  -3.357  0.00  0.00    +0.003 A 
ATOM     17  C   UNL     1     -14.403   2.783  -3.795  0.00  0.00    +0.020 A 
ATOM     18 CL   UNL     1     -14.615  -1.646  -2.999  0.00  0.00    -0.083 Cl
ATOM     19  C   UNL     1     -15.605   2.112  -4.062  0.00  0.00    +0.047 A 
ATOM     20 CL   UNL     1     -16.937   3.108  -4.546  0.00  0.00    -0.083 Cl
ENDBRANCH  12  13
ENDBRANCH   4  12
TORSDOF 5
ENDMDL
MODEL 6
REMARK VINA RESULT:      -5.5      2.738      5.082
REMARK  Name = min_compound957.pdb
REMARK  7 active torsions:
REMARK  status: ('A' for Active; 'I' for Inactive)
REMARK    1  A    between atoms: _2  and  _14
REMARK    2  A    between atoms: _4  and  _18
REMARK    3  A    between atoms: _5  and  _17
REMARK    4  A    between atoms: _6  and  _18
REMARK    5  A    between atoms: _14  and  _15
REMARK    6  A    between atoms: _14  and  _16
REMARK    7  A    between atoms: _17  and  _19
REMARK                            x       y       z     vdW  Elec       q    Type
REMARK                         _______ _______ _______ _____ _____    ______ ____
ROOT
ATOM      1  N   UNL     1     -10.512   1.997 -15.679  0.00  0.00    -0.240 NA
ATOM      2  C   UNL     1     -10.591   3.334 -15.926  0.00  0.00    +0.136 A 
ATOM      3  C   UNL     1     -11.320   3.586 -17.070  0.00  0.00    +0.064 A 
ATOM      4  N   UNL     1     -11.814   2.352 -17.446  0.00  0.00    -0.325 N 
ATOM      5  C   UNL     1     -11.182   1.407 -16.648  0.00  0.00    +0.113 A 
ENDROOT
BRANCH   5   6
ATOM      6  C   UNL     1     -11.219  -0.083 -16.878  0.00  0.00    +0.049 C 
ATOM      7  C   UNL     1     -12.458  -0.701 -16.235  0.00  0.00    +0.015 C 
ATOM      8  C   UNL     1      -9.949  -0.745 -16.334  0.00  0.00    +0.015 C 
ENDBRANCH   5   6
BRANCH   3   9
ATOM      9  C   UNL     1     -11.517   4.872 -17.770  0.00  0.00    +0.210 C 
BRANCH   9  10
ATOM     10  O   UNL     1     -12.559   5.544 -17.083  0.00  0.00    -0.389 OA
ATOM     11  H   UNL     1     -12.266   6.466 -16.971  0.00  0.00    +0.210 HD
ENDBRANCH   9  10
ENDBRANCH   3   9
BRANCH   4  12
ATOM     12  C   UNL     1     -12.719   2.027 -18.554  0.00  0.00    +0.161 C 
BRANCH  12  13
ATOM     13  C   UNL     1     -14.007   2.821 -18.647  0.00  0.00    +0.009 A 
ATOM     14  C   UNL     1     -14.887   2.984 -17.558  0.00  0.00    +0.047 A 
ATOM     15  C   UNL     1     -16.063   3.740 -17.677  0.00  0.00    +0.020 A 
ATOM     16  C   UNL     1     -16.416   4.309 -18.895  0.00  0.00    +0.003 A 
ATOM     17  C   UNL     1     -15.601   4.108 -20.001  0.00  0.00    +0.020 A 
ATOM     18 CL   UNL     1     -14.619   2.241 -16.020  0.00  0.00    -0.083 Cl
ATOM     19  C   UNL     1     -14.416   3.367 -19.884  0.00  0.00    +0.047 A 
ATOM     20 CL   UNL     1     -13.517   3.137 -21.346  0.00  0.00    -0.083 Cl
ENDBRANCH  12  13
ENDBRANCH   4  12
TORSDOF 5
ENDMDL
MODEL 7
REMARK VINA RESULT:      -5.4     10.468     12.465
REMARK  Name = min_compound957.pdb
REMARK  7 active torsions:
REMARK  status: ('A' for Active; 'I' for Inactive)
REMARK    1  A    between atoms: _2  and  _14
REMARK    2  A    between atoms: _4  and  _18
REMARK    3  A    between atoms: _5  and  _17
REMARK    4  A    between atoms: _6  and  _18
REMARK    5  A    between atoms: _14  and  _15
REMARK    6  A    between atoms: _14  and  _16
REMARK    7  A    between atoms: _17  and  _19
REMARK                            x       y       z     vdW  Elec       q    Type
REMARK                         _______ _______ _______ _____ _____    ______ ____
ROOT
ATOM      1  N   UNL     1     -17.458   0.993  -7.834  0.00  0.00    -0.240 NA
ATOM      2  C   UNL     1     -16.405   0.137  -7.950  0.00  0.00    +0.136 A 
ATOM      3  C   UNL     1     -15.632   0.142  -6.808  0.00  0.00    +0.064 A 
ATOM      4  N   UNL     1     -16.332   0.933  -5.917  0.00  0.00    -0.325 N 
ATOM      5  C   UNL     1     -17.359   1.532  -6.636  0.00  0.00    +0.113 A 
ENDROOT
BRANCH   5   6
ATOM      6  C   UNL     1     -18.215   2.668  -6.136  0.00  0.00    +0.049 C 
ATOM      7  C   UNL     1     -19.682   2.253  -6.067  0.00  0.00    +0.015 C 
ATOM      8  C   UNL     1     -18.051   3.901  -7.031  0.00  0.00    +0.015 C 
ENDBRANCH   5   6
BRANCH   3   9
ATOM      9  C   UNL     1     -14.330  -0.519  -6.575  0.00  0.00    +0.210 C 
BRANCH   9  10
ATOM     10  O   UNL     1     -14.620  -1.874  -6.274  0.00  0.00    -0.389 OA
ATOM     11  H   UNL     1     -14.914  -1.893  -5.346  0.00  0.00    +0.210 HD
ENDBRANCH   9  10
ENDBRANCH   3   9
BRANCH   4  12
ATOM     12  C   UNL     1     -16.019   1.232  -4.516  0.00  0.00    +0.161 C 
BRANCH  12  13
ATOM     13  C   UNL     1     -15.799   0.051  -3.592  0.00  0.00    +0.009 A 
ATOM     14  C   UNL     1     -16.834  -0.830  -3.215  0.00  0.00    +0.047 A 
ATOM     15  C   UNL     1     -16.589  -1.923  -2.370  0.00  0.00    +0.020 A 
ATOM     16  C   UNL     1     -15.322  -2.135  -1.840  0.00  0.00    +0.003 A 
ATOM     17  C   UNL     1     -14.301  -1.244  -2.140  0.00  0.00    +0.020 A 
ATOM     18 CL   UNL     1     -18.473  -0.617  -3.719  0.00  0.00    -0.083 Cl
ATOM     19  C   UNL     1     -14.535  -0.160  -2.998  0.00  0.00    +0.047 A 
ATOM     20 CL   UNL     1     -13.198   0.913  -3.248  0.00  0.00    -0.083 Cl
ENDBRANCH  12  13
ENDBRANCH   4  12
TORSDOF 5
ENDMDL
MODEL 8
REMARK VINA RESULT:      -5.4      2.302      2.707
REMARK  Name = min_compound957.pdb
REMARK  7 active torsions:
REMARK  status: ('A' for Active; 'I' for Inactive)
REMARK    1  A    between atoms: _2  and  _14
REMARK    2  A    between atoms: _4  and  _18
REMARK    3  A    between atoms: _5  and  _17
REMARK    4  A    between atoms: _6  and  _18
REMARK    5  A    between atoms: _14  and  _15
REMARK    6  A    between atoms: _14  and  _16
REMARK    7  A    between atoms: _17  and  _19
REMARK                            x       y       z     vdW  Elec       q    Type
REMARK                         _______ _______ _______ _____ _____    ______ ____
ROOT
ATOM      1  N   UNL     1     -16.669   3.949 -17.254  0.00  0.00    -0.240 NA
ATOM      2  C   UNL     1     -16.716   4.365 -18.550  0.00  0.00    +0.136 A 
ATOM      3  C   UNL     1     -15.554   4.042 -19.219  0.00  0.00    +0.064 A 
ATOM      4  N   UNL     1     -14.837   3.276 -18.320  0.00  0.00    -0.325 N 
ATOM      5  C   UNL     1     -15.497   3.367 -17.100  0.00  0.00    +0.113 A 
ENDROOT
BRANCH   5   6
ATOM      6  C   UNL     1     -14.938   2.904 -15.779  0.00  0.00    +0.049 C 
ATOM      7  C   UNL     1     -15.927   1.991 -15.061  0.00  0.00    +0.015 C 
ATOM      8  C   UNL     1     -14.580   4.103 -14.895  0.00  0.00    +0.015 C 
ENDBRANCH   5   6
BRANCH   3   9
ATOM      9  C   UNL     1     -15.135   4.438 -20.580  0.00  0.00    +0.210 C 
BRANCH   9  10
ATOM     10  O   UNL     1     -15.490   3.363 -21.434  0.00  0.00    -0.389 OA
ATOM     11  H   UNL     1     -14.707   2.787 -21.491  0.00  0.00    +0.210 HD
ENDBRANCH   9  10
ENDBRANCH   3   9
BRANCH   4  12
ATOM     12  C   UNL     1     -13.552   2.595 -18.517  0.00  0.00    +0.161 C 
BRANCH  12  13
ATOM     13  C   UNL     1     -12.434   2.940 -17.553  0.00  0.00    +0.009 A 
ATOM     14  C   UNL     1     -11.902   2.012 -16.635  0.00  0.00    +0.047 A 
ATOM     15  C   UNL     1     -10.855   2.362 -15.769  0.00  0.00    +0.020 A 
ATOM     16  C   UNL     1     -10.349   3.656 -15.760  0.00  0.00    +0.003 A 
ATOM     17  C   UNL     1     -10.901   4.608 -16.607  0.00  0.00    +0.020 A 
ATOM     18 CL   UNL     1     -12.512   0.404 -16.470  0.00  0.00    -0.083 Cl
ATOM     19  C   UNL     1     -11.935   4.259 -17.487  0.00  0.00    +0.047 A 
ATOM     20 CL   UNL     1     -12.580   5.548 -18.449  0.00  0.00    -0.083 Cl
ENDBRANCH  12  13
ENDBRANCH   4  12
TORSDOF 5
ENDMDL
MODEL 9
REMARK VINA RESULT:      -5.4      1.946      3.094
REMARK  Name = min_compound957.pdb
REMARK  7 active torsions:
REMARK  status: ('A' for Active; 'I' for Inactive)
REMARK    1  A    between atoms: _2  and  _14
REMARK    2  A    between atoms: _4  and  _18
REMARK    3  A    between atoms: _5  and  _17
REMARK    4  A    between atoms: _6  and  _18
REMARK    5  A    between atoms: _14  and  _15
REMARK    6  A    between atoms: _14  and  _16
REMARK    7  A    between atoms: _17  and  _19
REMARK                            x       y       z     vdW  Elec       q    Type
REMARK                         _______ _______ _______ _____ _____    ______ ____
ROOT
ATOM      1  N   UNL     1     -16.200   6.427 -14.586  0.00  0.00    -0.240 NA
ATOM      2  C   UNL     1     -16.109   7.361 -15.573  0.00  0.00    +0.136 A 
ATOM      3  C   UNL     1     -15.373   6.889 -16.639  0.00  0.00    +0.064 A 
ATOM      4  N   UNL     1     -15.130   5.563 -16.334  0.00  0.00    -0.325 N 
ATOM      5  C   UNL     1     -15.535   5.375 -15.018  0.00  0.00    +0.113 A 
ENDROOT
BRANCH   5   6
ATOM      6  C   UNL     1     -15.224   4.158 -14.184  0.00  0.00    +0.049 C 
ATOM      7  C   UNL     1     -16.422   3.215 -14.131  0.00  0.00    +0.015 C 
ATOM      8  C   UNL     1     -14.803   4.567 -12.769  0.00  0.00    +0.015 C 
ENDBRANCH   5   6
BRANCH   3   9
ATOM      9  C   UNL     1     -14.912   7.623 -17.836  0.00  0.00    +0.210 C 
BRANCH   9  10
ATOM     10  O   UNL     1     -14.918   8.997 -17.486  0.00  0.00    -0.389 OA
ATOM     11  H   UNL     1     -15.252   9.478 -18.265  0.00  0.00    +0.210 HD
ENDBRANCH   9  10
ENDBRANCH   3   9
BRANCH   4  12
ATOM     12  C   UNL     1     -14.453   4.546 -17.145  0.00  0.00    +0.161 C 
BRANCH  12  13
ATOM     13  C   UNL     1     -13.064   4.126 -16.706  0.00  0.00    +0.009 A 
ATOM     14  C   UNL     1     -11.933   4.957 -16.847  0.00  0.00    +0.047 A 
ATOM     15  C   UNL     1     -10.665   4.541 -16.414  0.00  0.00    +0.020 A 
ATOM     16  C   UNL     1     -10.483   3.272 -15.879  0.00  0.00    +0.003 A 
ATOM     17  C   UNL     1     -11.567   2.408 -15.792  0.00  0.00    +0.020 A 
ATOM     18 CL   UNL     1     -12.004   6.515 -17.591  0.00  0.00    -0.083 Cl
ATOM     19  C   UNL     1     -12.840   2.825 -16.207  0.00  0.00    +0.047 A 
ATOM     20 CL   UNL     1     -14.097   1.638 -16.103  0.00  0.00    -0.083 Cl
ENDBRANCH  12  13
ENDBRANCH   4  12
TORSDOF 5
ENDMDL
