MODEL 1
REMARK VINA RESULT:      -8.0      0.000      0.000
REMARK  Name = min_compound994.pdb
REMARK  6 active torsions:
REMARK  status: ('A' for Active; 'I' for Inactive)
REMARK    1  A    between atoms: _1  and  _12
REMARK    2  A    between atoms: _2  and  _21
REMARK    3  A    between atoms: _8  and  _23
REMARK    4  A    between atoms: _9  and  _23
REMARK    5  A    between atoms: _10  and  _24
REMARK    6  A    between atoms: _24  and  _26
REMARK                            x       y       z     vdW  Elec       q    Type
REMARK                         _______ _______ _______ _____ _____    ______ ____
ROOT
ATOM      1  C   UNL     1     -13.283   2.126 -16.363  0.00  0.00    +0.134 A 
ATOM      2  C   UNL     1     -12.101   1.338 -16.595  0.00  0.00    +0.028 A 
ATOM      3  C   UNL     1     -12.122  -0.071 -16.393  0.00  0.00    +0.012 A 
ATOM      4  C   UNL     1     -11.028  -0.905 -16.629  0.00  0.00    +0.001 A 
ATOM      5  C   UNL     1      -9.849  -0.350 -17.079  0.00  0.00    +0.001 A 
ATOM      6  C   UNL     1      -9.781   1.029 -17.274  0.00  0.00    +0.012 A 
ATOM      7  C   UNL     1     -10.872   1.914 -17.042  0.00  0.00    +0.028 A 
ATOM      8  C   UNL     1     -10.721   3.321 -17.267  0.00  0.00    +0.132 A 
ATOM      9  C   UNL     1     -11.904   4.109 -17.045  0.00  0.00    +0.029 A 
ATOM     10  C   UNL     1     -11.839   5.503 -17.287  0.00  0.00    +0.013 A 
ATOM     11  C   UNL     1     -12.934   6.355 -17.210  0.00  0.00    +0.017 A 
ATOM     12  C   UNL     1     -14.170   5.843 -16.849  0.00  0.00    +0.081 A 
ATOM     13  C   UNL     1     -14.284   4.488 -16.470  0.00  0.00    +0.057 A 
ATOM     14  C   UNL     1     -13.164   3.557 -16.611  0.00  0.00    +0.050 A 
ENDROOT
BRANCH  12  15
ATOM     15  C   UNL     1     -15.329   6.763 -17.023  0.00  0.00    +0.339 C 
ATOM     16  O   UNL     1     -16.441   6.395 -17.379  0.00  0.00    -0.245 OA
BRANCH  15  17
ATOM     17  O   UNL     1     -15.083   8.034 -16.625  0.00  0.00    -0.477 OA
ATOM     18  H   UNL     1     -15.933   8.540 -16.602  0.00  0.00    +0.295 HD
ENDBRANCH  15  17
ENDBRANCH  12  15
BRANCH  13  19
ATOM     19  N   UNL     1     -15.559   3.964 -16.021  0.00  0.00    -0.313 N 
ATOM     20  H   UNL     1     -15.574   2.998 -16.441  0.00  0.00    +0.152 HD
BRANCH  19  21
ATOM     21  C   UNL     1     -16.088   3.863 -14.704  0.00  0.00    +0.031 A 
ATOM     22  C   UNL     1     -15.364   4.487 -13.674  0.00  0.00    +0.023 A 
ATOM     23  C   UNL     1     -15.738   4.347 -12.335  0.00  0.00    +0.002 A 
ATOM     24  C   UNL     1     -16.841   3.568 -12.003  0.00  0.00    +0.000 A 
ATOM     25  C   UNL     1     -17.576   2.950 -13.012  0.00  0.00    +0.002 A 
ATOM     26  C   UNL     1     -17.205   3.102 -14.355  0.00  0.00    +0.023 A 
ENDBRANCH  19  21
ENDBRANCH  13  19
BRANCH   1  27
ATOM     27  O   UNL     1     -14.395   1.580 -15.980  0.00  0.00    -0.505 OA
ATOM     28  H   UNL     1     -14.621   0.719 -16.276  0.00  0.00    +0.292 HD
ENDBRANCH   1  27
BRANCH   8  29
ATOM     29  O   UNL     1      -9.601   3.841 -17.661  0.00  0.00    -0.506 OA
ATOM     30  H   UNL     1      -9.060   4.304 -17.052  0.00  0.00    +0.292 HD
ENDBRANCH   8  29
TORSDOF 6
ENDMDL
MODEL 2
REMARK VINA RESULT:      -7.9      3.511      4.268
REMARK  Name = min_compound994.pdb
REMARK  6 active torsions:
REMARK  status: ('A' for Active; 'I' for Inactive)
REMARK    1  A    between atoms: _1  and  _12
REMARK    2  A    between atoms: _2  and  _21
REMARK    3  A    between atoms: _8  and  _23
REMARK    4  A    between atoms: _9  and  _23
REMARK    5  A    between atoms: _10  and  _24
REMARK    6  A    between atoms: _24  and  _26
REMARK                            x       y       z     vdW  Elec       q    Type
REMARK                         _______ _______ _______ _____ _____    ______ ____
ROOT
ATOM      1  C   UNL     1     -12.343   2.103 -18.293  0.00  0.00    +0.134 A 
ATOM      2  C   UNL     1     -11.588   1.351 -17.325  0.00  0.00    +0.028 A 
ATOM      3  C   UNL     1     -11.585  -0.072 -17.361  0.00  0.00    +0.012 A 
ATOM      4  C   UNL     1     -10.852  -0.868 -16.480  0.00  0.00    +0.001 A 
ATOM      5  C   UNL     1     -10.086  -0.260 -15.508  0.00  0.00    +0.001 A 
ATOM      6  C   UNL     1     -10.075   1.132 -15.428  0.00  0.00    +0.012 A 
ATOM      7  C   UNL     1     -10.810   1.979 -16.305  0.00  0.00    +0.028 A 
ATOM      8  C   UNL     1     -10.744   3.403 -16.156  0.00  0.00    +0.132 A 
ATOM      9  C   UNL     1     -11.491   4.156 -17.129  0.00  0.00    +0.029 A 
ATOM     10  C   UNL     1     -11.439   5.571 -17.067  0.00  0.00    +0.013 A 
ATOM     11  C   UNL     1     -12.028   6.410 -18.006  0.00  0.00    +0.017 A 
ATOM     12  C   UNL     1     -12.739   5.858 -19.059  0.00  0.00    +0.081 A 
ATOM     13  C   UNL     1     -12.940   4.462 -19.115  0.00  0.00    +0.057 A 
ATOM     14  C   UNL     1     -12.272   3.555 -18.181  0.00  0.00    +0.050 A 
ENDROOT
BRANCH  12  15
ATOM     15  C   UNL     1     -13.130   6.802 -20.143  0.00  0.00    +0.339 C 
ATOM     16  O   UNL     1     -12.378   7.152 -21.044  0.00  0.00    -0.245 OA
BRANCH  15  17
ATOM     17  O   UNL     1     -14.440   7.144 -20.124  0.00  0.00    -0.477 OA
ATOM     18  H   UNL     1     -14.811   7.072 -21.039  0.00  0.00    +0.295 HD
ENDBRANCH  15  17
ENDBRANCH  12  15
BRANCH  13  19
ATOM     19  N   UNL     1     -13.744   3.885 -20.174  0.00  0.00    -0.313 N 
ATOM     20  H   UNL     1     -13.396   2.891 -20.216  0.00  0.00    +0.152 HD
BRANCH  19  21
ATOM     21  C   UNL     1     -15.159   3.845 -20.324  0.00  0.00    +0.031 A 
ATOM     22  C   UNL     1     -15.659   3.674 -21.626  0.00  0.00    +0.023 A 
ATOM     23  C   UNL     1     -17.028   3.738 -21.893  0.00  0.00    +0.002 A 
ATOM     24  C   UNL     1     -17.924   3.987 -20.858  0.00  0.00    +0.000 A 
ATOM     25  C   UNL     1     -17.446   4.150 -19.559  0.00  0.00    +0.002 A 
ATOM     26  C   UNL     1     -16.073   4.074 -19.294  0.00  0.00    +0.023 A 
ENDBRANCH  19  21
ENDBRANCH  13  19
BRANCH   1  27
ATOM     27  O   UNL     1     -13.023   1.513 -19.226  0.00  0.00    -0.505 OA
ATOM     28  H   UNL     1     -13.515   0.740 -19.029  0.00  0.00    +0.292 HD
ENDBRANCH   1  27
BRANCH   8  29
ATOM     29  O   UNL     1     -10.047   3.968 -15.222  0.00  0.00    -0.506 OA
ATOM     30  H   UNL     1      -9.126   3.806 -15.163  0.00  0.00    +0.292 HD
ENDBRANCH   8  29
TORSDOF 6
ENDMDL
MODEL 3
REMARK VINA RESULT:      -7.9      3.812      6.290
REMARK  Name = min_compound994.pdb
REMARK  6 active torsions:
REMARK  status: ('A' for Active; 'I' for Inactive)
REMARK    1  A    between atoms: _1  and  _12
REMARK    2  A    between atoms: _2  and  _21
REMARK    3  A    between atoms: _8  and  _23
REMARK    4  A    between atoms: _9  and  _23
REMARK    5  A    between atoms: _10  and  _24
REMARK    6  A    between atoms: _24  and  _26
REMARK                            x       y       z     vdW  Elec       q    Type
REMARK                         _______ _______ _______ _____ _____    ______ ____
ROOT
ATOM      1  C   UNL     1     -13.494   2.841 -20.556  0.00  0.00    +0.134 A 
ATOM      2  C   UNL     1     -13.920   3.480 -21.773  0.00  0.00    +0.028 A 
ATOM      3  C   UNL     1     -14.482   2.711 -22.832  0.00  0.00    +0.012 A 
ATOM      4  C   UNL     1     -14.949   3.261 -24.027  0.00  0.00    +0.001 A 
ATOM      5  C   UNL     1     -14.864   4.625 -24.212  0.00  0.00    +0.001 A 
ATOM      6  C   UNL     1     -14.305   5.412 -23.207  0.00  0.00    +0.012 A 
ATOM      7  C   UNL     1     -13.815   4.890 -21.976  0.00  0.00    +0.028 A 
ATOM      8  C   UNL     1     -13.255   5.767 -20.992  0.00  0.00    +0.132 A 
ATOM      9  C   UNL     1     -12.837   5.132 -19.770  0.00  0.00    +0.029 A 
ATOM     10  C   UNL     1     -12.309   5.945 -18.736  0.00  0.00    +0.013 A 
ATOM     11  C   UNL     1     -11.968   5.470 -17.475  0.00  0.00    +0.017 A 
ATOM     12  C   UNL     1     -12.113   4.121 -17.195  0.00  0.00    +0.081 A 
ATOM     13  C   UNL     1     -12.512   3.231 -18.215  0.00  0.00    +0.057 A 
ATOM     14  C   UNL     1     -12.944   3.715 -19.527  0.00  0.00    +0.050 A 
ENDROOT
BRANCH  12  15
ATOM     15  C   UNL     1     -11.957   3.736 -15.764  0.00  0.00    +0.339 C 
ATOM     16  O   UNL     1     -12.871   3.303 -15.074  0.00  0.00    -0.245 OA
BRANCH  15  17
ATOM     17  O   UNL     1     -10.678   3.781 -15.322  0.00  0.00    -0.477 OA
ATOM     18  H   UNL     1     -10.589   4.504 -14.651  0.00  0.00    +0.295 HD
ENDBRANCH  15  17
ENDBRANCH  12  15
BRANCH  13  19
ATOM     19  N   UNL     1     -12.595   1.809 -17.948  0.00  0.00    -0.313 N 
ATOM     20  H   UNL     1     -12.993   1.426 -18.846  0.00  0.00    +0.152 HD
BRANCH  19  21
ATOM     21  C   UNL     1     -11.587   0.904 -17.510  0.00  0.00    +0.031 A 
ATOM     22  C   UNL     1     -11.997  -0.165 -16.696  0.00  0.00    +0.023 A 
ATOM     23  C   UNL     1     -11.072  -1.039 -16.122  0.00  0.00    +0.002 A 
ATOM     24  C   UNL     1      -9.712  -0.849 -16.344  0.00  0.00    +0.000 A 
ATOM     25  C   UNL     1      -9.287   0.201 -17.156  0.00  0.00    +0.002 A 
ATOM     26  C   UNL     1     -10.220   1.068 -17.740  0.00  0.00    +0.023 A 
ENDBRANCH  19  21
ENDBRANCH  13  19
BRANCH   1  27
ATOM     27  O   UNL     1     -13.620   1.562 -20.383  0.00  0.00    -0.505 OA
ATOM     28  H   UNL     1     -13.385   0.971 -21.071  0.00  0.00    +0.292 HD
ENDBRANCH   1  27
BRANCH   8  29
ATOM     29  O   UNL     1     -13.150   7.044 -21.185  0.00  0.00    -0.506 OA
ATOM     30  H   UNL     1     -12.450   7.523 -20.785  0.00  0.00    +0.292 HD
ENDBRANCH   8  29
TORSDOF 6
ENDMDL
MODEL 4
REMARK VINA RESULT:      -7.6      1.811      5.985
REMARK  Name = min_compound994.pdb
REMARK  6 active torsions:
REMARK  status: ('A' for Active; 'I' for Inactive)
REMARK    1  A    between atoms: _1  and  _12
REMARK    2  A    between atoms: _2  and  _21
REMARK    3  A    between atoms: _8  and  _23
REMARK    4  A    between atoms: _9  and  _23
REMARK    5  A    between atoms: _10  and  _24
REMARK    6  A    between atoms: _24  and  _26
REMARK                            x       y       z     vdW  Elec       q    Type
REMARK                         _______ _______ _______ _____ _____    ______ ____
ROOT
ATOM      1  C   UNL     1     -15.270   3.988 -15.303  0.00  0.00    +0.134 A 
ATOM      2  C   UNL     1     -16.097   4.132 -14.134  0.00  0.00    +0.028 A 
ATOM      3  C   UNL     1     -16.541   2.983 -13.419  0.00  0.00    +0.012 A 
ATOM      4  C   UNL     1     -17.315   3.043 -12.259  0.00  0.00    +0.001 A 
ATOM      5  C   UNL     1     -17.685   4.276 -11.766  0.00  0.00    +0.001 A 
ATOM      6  C   UNL     1     -17.286   5.426 -12.446  0.00  0.00    +0.012 A 
ATOM      7  C   UNL     1     -16.500   5.408 -13.633  0.00  0.00    +0.028 A 
ATOM      8  C   UNL     1     -16.129   6.635 -14.273  0.00  0.00    +0.132 A 
ATOM      9  C   UNL     1     -15.295   6.494 -15.436  0.00  0.00    +0.029 A 
ATOM     10  C   UNL     1     -14.858   7.668 -16.097  0.00  0.00    +0.013 A 
ATOM     11  C   UNL     1     -13.968   7.672 -17.165  0.00  0.00    +0.017 A 
ATOM     12  C   UNL     1     -13.487   6.467 -17.652  0.00  0.00    +0.081 A 
ATOM     13  C   UNL     1     -13.978   5.252 -17.127  0.00  0.00    +0.057 A 
ATOM     14  C   UNL     1     -14.857   5.223 -15.958  0.00  0.00    +0.050 A 
ENDROOT
BRANCH  12  15
ATOM     15  C   UNL     1     -12.366   6.564 -18.628  0.00  0.00    +0.339 C 
ATOM     16  O   UNL     1     -12.245   5.830 -19.600  0.00  0.00    -0.245 OA
BRANCH  15  17
ATOM     17  O   UNL     1     -11.552   7.627 -18.421  0.00  0.00    -0.477 OA
ATOM     18  H   UNL     1     -12.073   8.462 -18.523  0.00  0.00    +0.295 HD
ENDBRANCH  15  17
ENDBRANCH  12  15
BRANCH  13  19
ATOM     19  N   UNL     1     -13.534   3.989 -17.682  0.00  0.00    -0.313 N 
ATOM     20  H   UNL     1     -13.504   4.187 -18.717  0.00  0.00    +0.152 HD
BRANCH  19  21
ATOM     21  C   UNL     1     -12.386   3.208 -17.367  0.00  0.00    +0.031 A 
ATOM     22  C   UNL     1     -12.239   1.985 -18.043  0.00  0.00    +0.023 A 
ATOM     23  C   UNL     1     -11.212   1.095 -17.722  0.00  0.00    +0.002 A 
ATOM     24  C   UNL     1     -10.316   1.411 -16.705  0.00  0.00    +0.000 A 
ATOM     25  C   UNL     1     -10.441   2.624 -16.031  0.00  0.00    +0.002 A 
ATOM     26  C   UNL     1     -11.467   3.519 -16.364  0.00  0.00    +0.023 A 
ENDBRANCH  19  21
ENDBRANCH  13  19
BRANCH   1  27
ATOM     27  O   UNL     1     -14.897   2.821 -15.728  0.00  0.00    -0.505 OA
ATOM     28  H   UNL     1     -15.478   2.089 -15.658  0.00  0.00    +0.292 HD
ENDBRANCH   1  27
BRANCH   8  29
ATOM     29  O   UNL     1     -16.507   7.790 -13.821  0.00  0.00    -0.506 OA
ATOM     30  H   UNL     1     -15.869   8.404 -13.515  0.00  0.00    +0.292 HD
ENDBRANCH   8  29
TORSDOF 6
ENDMDL
MODEL 5
REMARK VINA RESULT:      -7.6      1.818      2.178
REMARK  Name = min_compound994.pdb
REMARK  6 active torsions:
REMARK  status: ('A' for Active; 'I' for Inactive)
REMARK    1  A    between atoms: _1  and  _12
REMARK    2  A    between atoms: _2  and  _21
REMARK    3  A    between atoms: _8  and  _23
REMARK    4  A    between atoms: _9  and  _23
REMARK    5  A    between atoms: _10  and  _24
REMARK    6  A    between atoms: _24  and  _26
REMARK                            x       y       z     vdW  Elec       q    Type
REMARK                         _______ _______ _______ _____ _____    ______ ____
ROOT
ATOM      1  C   UNL     1     -12.916   2.971 -15.985  0.00  0.00    +0.134 A 
ATOM      2  C   UNL     1     -11.931   2.015 -16.418  0.00  0.00    +0.028 A 
ATOM      3  C   UNL     1     -10.937   1.544 -15.514  0.00  0.00    +0.012 A 
ATOM      4  C   UNL     1      -9.971   0.594 -15.849  0.00  0.00    +0.001 A 
ATOM      5  C   UNL     1      -9.960   0.075 -17.126  0.00  0.00    +0.001 A 
ATOM      6  C   UNL     1     -10.906   0.521 -18.048  0.00  0.00    +0.012 A 
ATOM      7  C   UNL     1     -11.905   1.490 -17.746  0.00  0.00    +0.028 A 
ATOM      8  C   UNL     1     -12.843   1.896 -18.751  0.00  0.00    +0.132 A 
ATOM      9  C   UNL     1     -13.834   2.844 -18.317  0.00  0.00    +0.029 A 
ATOM     10  C   UNL     1     -14.818   3.260 -19.247  0.00  0.00    +0.013 A 
ATOM     11  C   UNL     1     -15.888   4.089 -18.926  0.00  0.00    +0.017 A 
ATOM     12  C   UNL     1     -16.007   4.574 -17.634  0.00  0.00    +0.081 A 
ATOM     13  C   UNL     1     -14.994   4.305 -16.687  0.00  0.00    +0.057 A 
ATOM     14  C   UNL     1     -13.899   3.380 -16.980  0.00  0.00    +0.050 A 
ENDROOT
BRANCH  12  15
ATOM     15  C   UNL     1     -17.295   5.249 -17.311  0.00  0.00    +0.339 C 
ATOM     16  O   UNL     1     -18.383   4.690 -17.350  0.00  0.00    -0.245 OA
BRANCH  15  17
ATOM     17  O   UNL     1     -17.148   6.510 -16.838  0.00  0.00    -0.477 OA
ATOM     18  H   UNL     1     -17.396   7.156 -17.546  0.00  0.00    +0.295 HD
ENDBRANCH  15  17
ENDBRANCH  12  15
BRANCH  13  19
ATOM     19  N   UNL     1     -15.076   4.872 -15.355  0.00  0.00    -0.313 N 
ATOM     20  H   UNL     1     -15.408   5.855 -15.541  0.00  0.00    +0.152 HD
BRANCH  19  21
ATOM     21  C   UNL     1     -15.769   4.400 -14.206  0.00  0.00    +0.031 A 
ATOM     22  C   UNL     1     -15.478   5.025 -12.981  0.00  0.00    +0.023 A 
ATOM     23  C   UNL     1     -16.017   4.559 -11.780  0.00  0.00    +0.002 A 
ATOM     24  C   UNL     1     -16.852   3.446 -11.783  0.00  0.00    +0.000 A 
ATOM     25  C   UNL     1     -17.159   2.820 -12.989  0.00  0.00    +0.002 A 
ATOM     26  C   UNL     1     -16.625   3.297 -14.193  0.00  0.00    +0.023 A 
ENDBRANCH  19  21
ENDBRANCH  13  19
BRANCH   1  27
ATOM     27  O   UNL     1     -12.936   3.416 -14.767  0.00  0.00    -0.505 OA
ATOM     28  H   UNL     1     -12.700   4.306 -14.590  0.00  0.00    +0.292 HD
ENDBRANCH   1  27
BRANCH   8  29
ATOM     29  O   UNL     1     -12.808   1.426 -19.958  0.00  0.00    -0.506 OA
ATOM     30  H   UNL     1     -13.442   1.708 -20.588  0.00  0.00    +0.292 HD
ENDBRANCH   8  29
TORSDOF 6
ENDMDL
MODEL 6
REMARK VINA RESULT:      -7.3      3.366      5.183
REMARK  Name = min_compound994.pdb
REMARK  6 active torsions:
REMARK  status: ('A' for Active; 'I' for Inactive)
REMARK    1  A    between atoms: _1  and  _12
REMARK    2  A    between atoms: _2  and  _21
REMARK    3  A    between atoms: _8  and  _23
REMARK    4  A    between atoms: _9  and  _23
REMARK    5  A    between atoms: _10  and  _24
REMARK    6  A    between atoms: _24  and  _26
REMARK                            x       y       z     vdW  Elec       q    Type
REMARK                         _______ _______ _______ _____ _____    ______ ____
ROOT
ATOM      1  C   UNL     1     -14.964   3.792 -18.798  0.00  0.00    +0.134 A 
ATOM      2  C   UNL     1     -15.441   3.607 -20.143  0.00  0.00    +0.028 A 
ATOM      3  C   UNL     1     -16.569   4.335 -20.615  0.00  0.00    +0.012 A 
ATOM      4  C   UNL     1     -17.069   4.235 -21.915  0.00  0.00    +0.001 A 
ATOM      5  C   UNL     1     -16.451   3.382 -22.804  0.00  0.00    +0.001 A 
ATOM      6  C   UNL     1     -15.352   2.637 -22.377  0.00  0.00    +0.012 A 
ATOM      7  C   UNL     1     -14.814   2.709 -21.061  0.00  0.00    +0.028 A 
ATOM      8  C   UNL     1     -13.681   1.909 -20.700  0.00  0.00    +0.132 A 
ATOM      9  C   UNL     1     -13.197   2.101 -19.359  0.00  0.00    +0.029 A 
ATOM     10  C   UNL     1     -12.054   1.372 -18.946  0.00  0.00    +0.013 A 
ATOM     11  C   UNL     1     -11.428   1.543 -17.717  0.00  0.00    +0.017 A 
ATOM     12  C   UNL     1     -11.949   2.451 -16.810  0.00  0.00    +0.081 A 
ATOM     13  C   UNL     1     -13.158   3.119 -17.101  0.00  0.00    +0.057 A 
ATOM     14  C   UNL     1     -13.795   3.011 -18.414  0.00  0.00    +0.050 A 
ENDROOT
BRANCH  12  15
ATOM     15  C   UNL     1     -11.093   2.750 -15.627  0.00  0.00    +0.339 C 
ATOM     16  O   UNL     1     -10.904   3.878 -15.193  0.00  0.00    -0.245 OA
BRANCH  15  17
ATOM     17  O   UNL     1     -10.642   1.645 -14.986  0.00  0.00    -0.477 OA
ATOM     18  H   UNL     1     -11.414   1.130 -14.640  0.00  0.00    +0.295 HD
ENDBRANCH  15  17
ENDBRANCH  12  15
BRANCH  13  19
ATOM     19  N   UNL     1     -13.746   4.016 -16.125  0.00  0.00    -0.313 N 
ATOM     20  H   UNL     1     -14.204   4.748 -16.729  0.00  0.00    +0.152 HD
BRANCH  19  21
ATOM     21  C   UNL     1     -14.636   3.735 -15.051  0.00  0.00    +0.031 A 
ATOM     22  C   UNL     1     -15.547   2.680 -15.233  0.00  0.00    +0.023 A 
ATOM     23  C   UNL     1     -16.535   2.401 -14.287  0.00  0.00    +0.002 A 
ATOM     24  C   UNL     1     -16.637   3.184 -13.142  0.00  0.00    +0.000 A 
ATOM     25  C   UNL     1     -15.736   4.228 -12.940  0.00  0.00    +0.002 A 
ATOM     26  C   UNL     1     -14.739   4.498 -13.886  0.00  0.00    +0.023 A 
ENDBRANCH  19  21
ENDBRANCH  13  19
BRANCH   1  27
ATOM     27  O   UNL     1     -15.533   4.630 -17.989  0.00  0.00    -0.505 OA
ATOM     28  H   UNL     1     -15.687   5.514 -18.261  0.00  0.00    +0.292 HD
ENDBRANCH   1  27
BRANCH   8  29
ATOM     29  O   UNL     1     -13.123   1.087 -21.532  0.00  0.00    -0.506 OA
ATOM     30  H   UNL     1     -12.238   1.228 -21.807  0.00  0.00    +0.292 HD
ENDBRANCH   8  29
TORSDOF 6
ENDMDL
MODEL 7
REMARK VINA RESULT:      -7.3      6.833     10.757
REMARK  Name = min_compound994.pdb
REMARK  6 active torsions:
REMARK  status: ('A' for Active; 'I' for Inactive)
REMARK    1  A    between atoms: _1  and  _12
REMARK    2  A    between atoms: _2  and  _21
REMARK    3  A    between atoms: _8  and  _23
REMARK    4  A    between atoms: _9  and  _23
REMARK    5  A    between atoms: _10  and  _24
REMARK    6  A    between atoms: _24  and  _26
REMARK                            x       y       z     vdW  Elec       q    Type
REMARK                         _______ _______ _______ _____ _____    ______ ____
ROOT
ATOM      1  C   UNL     1     -16.320   2.598  -8.938  0.00  0.00    +0.134 A 
ATOM      2  C   UNL     1     -16.584   3.517 -10.014  0.00  0.00    +0.028 A 
ATOM      3  C   UNL     1     -15.509   4.130 -10.719  0.00  0.00    +0.012 A 
ATOM      4  C   UNL     1     -15.684   5.003 -11.794  0.00  0.00    +0.001 A 
ATOM      5  C   UNL     1     -16.964   5.305 -12.207  0.00  0.00    +0.001 A 
ATOM      6  C   UNL     1     -18.045   4.739 -11.534  0.00  0.00    +0.012 A 
ATOM      7  C   UNL     1     -17.909   3.847 -10.432  0.00  0.00    +0.028 A 
ATOM      8  C   UNL     1     -19.073   3.307  -9.793  0.00  0.00    +0.132 A 
ATOM      9  C   UNL     1     -18.811   2.382  -8.723  0.00  0.00    +0.029 A 
ATOM     10  C   UNL     1     -19.914   1.777  -8.072  0.00  0.00    +0.013 A 
ATOM     11  C   UNL     1     -19.796   0.793  -7.098  0.00  0.00    +0.017 A 
ATOM     12  C   UNL     1     -18.535   0.379  -6.699  0.00  0.00    +0.081 A 
ATOM     13  C   UNL     1     -17.390   1.026  -7.212  0.00  0.00    +0.057 A 
ATOM     14  C   UNL     1     -17.486   2.013  -8.288  0.00  0.00    +0.050 A 
ENDROOT
BRANCH  12  15
ATOM     15  C   UNL     1     -18.493  -0.835  -5.838  0.00  0.00    +0.339 C 
ATOM     16  O   UNL     1     -19.348  -1.108  -5.006  0.00  0.00    -0.245 OA
BRANCH  15  17
ATOM     17  O   UNL     1     -17.488  -1.689  -6.145  0.00  0.00    -0.477 OA
ATOM     18  H   UNL     1     -17.471  -1.835  -7.124  0.00  0.00    +0.295 HD
ENDBRANCH  15  17
ENDBRANCH  12  15
BRANCH  13  19
ATOM     19  N   UNL     1     -16.071   0.648  -6.745  0.00  0.00    -0.313 N 
ATOM     20  H   UNL     1     -15.461   0.849  -7.581  0.00  0.00    +0.152 HD
BRANCH  19  21
ATOM     21  C   UNL     1     -15.358   1.073  -5.588  0.00  0.00    +0.031 A 
ATOM     22  C   UNL     1     -15.816   2.236  -4.946  0.00  0.00    +0.023 A 
ATOM     23  C   UNL     1     -15.118   2.798  -3.875  0.00  0.00    +0.002 A 
ATOM     24  C   UNL     1     -13.938   2.208  -3.433  0.00  0.00    +0.000 A 
ATOM     25  C   UNL     1     -13.474   1.049  -4.052  0.00  0.00    +0.002 A 
ATOM     26  C   UNL     1     -14.184   0.482  -5.119  0.00  0.00    +0.023 A 
ENDBRANCH  19  21
ENDBRANCH  13  19
BRANCH   1  27
ATOM     27  O   UNL     1     -15.108   2.294  -8.591  0.00  0.00    -0.505 OA
ATOM     28  H   UNL     1     -14.953   1.571  -8.015  0.00  0.00    +0.292 HD
ENDBRANCH   1  27
BRANCH   8  29
ATOM     29  O   UNL     1     -20.273   3.619 -10.167  0.00  0.00    -0.506 OA
ATOM     30  H   UNL     1     -21.007   3.372  -9.639  0.00  0.00    +0.292 HD
ENDBRANCH   8  29
TORSDOF 6
ENDMDL
MODEL 8
REMARK VINA RESULT:      -7.2      6.393     10.063
REMARK  Name = min_compound994.pdb
REMARK  6 active torsions:
REMARK  status: ('A' for Active; 'I' for Inactive)
REMARK    1  A    between atoms: _1  and  _12
REMARK    2  A    between atoms: _2  and  _21
REMARK    3  A    between atoms: _8  and  _23
REMARK    4  A    between atoms: _9  and  _23
REMARK    5  A    between atoms: _10  and  _24
REMARK    6  A    between atoms: _24  and  _26
REMARK                            x       y       z     vdW  Elec       q    Type
REMARK                         _______ _______ _______ _____ _____    ______ ____
ROOT
ATOM      1  C   UNL     1     -16.176   1.905  -7.245  0.00  0.00    +0.134 A 
ATOM      2  C   UNL     1     -15.490   1.560  -6.027  0.00  0.00    +0.028 A 
ATOM      3  C   UNL     1     -14.504   0.533  -6.022  0.00  0.00    +0.012 A 
ATOM      4  C   UNL     1     -13.773   0.166  -4.890  0.00  0.00    +0.001 A 
ATOM      5  C   UNL     1     -14.010   0.821  -3.700  0.00  0.00    +0.001 A 
ATOM      6  C   UNL     1     -14.980   1.822  -3.659  0.00  0.00    +0.012 A 
ATOM      7  C   UNL     1     -15.748   2.223  -4.788  0.00  0.00    +0.028 A 
ATOM      8  C   UNL     1     -16.727   3.262  -4.663  0.00  0.00    +0.132 A 
ATOM      9  C   UNL     1     -17.407   3.614  -5.881  0.00  0.00    +0.029 A 
ATOM     10  C   UNL     1     -18.360   4.662  -5.840  0.00  0.00    +0.013 A 
ATOM     11  C   UNL     1     -19.008   5.166  -6.962  0.00  0.00    +0.017 A 
ATOM     12  C   UNL     1     -18.746   4.610  -8.204  0.00  0.00    +0.081 A 
ATOM     13  C   UNL     1     -17.905   3.481  -8.304  0.00  0.00    +0.057 A 
ATOM     14  C   UNL     1     -17.158   2.978  -7.151  0.00  0.00    +0.050 A 
ENDROOT
BRANCH  12  15
ATOM     15  C   UNL     1     -19.289   5.355  -9.375  0.00  0.00    +0.339 C 
ATOM     16  O   UNL     1     -18.899   6.464  -9.714  0.00  0.00    -0.245 OA
BRANCH  15  17
ATOM     17  O   UNL     1     -20.166   4.640 -10.118  0.00  0.00    -0.477 OA
ATOM     18  H   UNL     1     -19.795   3.737 -10.284  0.00  0.00    +0.295 HD
ENDBRANCH  15  17
ENDBRANCH  12  15
BRANCH  13  19
ATOM     19  N   UNL     1     -17.686   2.849  -9.591  0.00  0.00    -0.313 N 
ATOM     20  H   UNL     1     -18.668   2.684  -9.939  0.00  0.00    +0.152 HD
BRANCH  19  21
ATOM     21  C   UNL     1     -16.911   3.288 -10.700  0.00  0.00    +0.031 A 
ATOM     22  C   UNL     1     -15.813   4.121 -10.424  0.00  0.00    +0.023 A 
ATOM     23  C   UNL     1     -15.061   4.697 -11.450  0.00  0.00    +0.002 A 
ATOM     24  C   UNL     1     -15.403   4.458 -12.776  0.00  0.00    +0.000 A 
ATOM     25  C   UNL     1     -16.483   3.627 -13.069  0.00  0.00    +0.002 A 
ATOM     26  C   UNL     1     -17.229   3.042 -12.037  0.00  0.00    +0.023 A 
ENDBRANCH  19  21
ENDBRANCH  13  19
BRANCH   1  27
ATOM     27  O   UNL     1     -15.909   1.307  -8.364  0.00  0.00    -0.505 OA
ATOM     28  H   UNL     1     -15.074   1.426  -8.772  0.00  0.00    +0.292 HD
ENDBRANCH   1  27
BRANCH   8  29
ATOM     29  O   UNL     1     -16.967   3.853  -3.535  0.00  0.00    -0.506 OA
ATOM     30  H   UNL     1     -16.589   4.691  -3.356  0.00  0.00    +0.292 HD
ENDBRANCH   8  29
TORSDOF 6
ENDMDL
MODEL 9
REMARK VINA RESULT:      -7.1      2.240      6.325
REMARK  Name = min_compound994.pdb
REMARK  6 active torsions:
REMARK  status: ('A' for Active; 'I' for Inactive)
REMARK    1  A    between atoms: _1  and  _12
REMARK    2  A    between atoms: _2  and  _21
REMARK    3  A    between atoms: _8  and  _23
REMARK    4  A    between atoms: _9  and  _23
REMARK    5  A    between atoms: _10  and  _24
REMARK    6  A    between atoms: _24  and  _26
REMARK                            x       y       z     vdW  Elec       q    Type
REMARK                         _______ _______ _______ _____ _____    ______ ____
ROOT
ATOM      1  C   UNL     1     -14.025   3.881 -15.076  0.00  0.00    +0.134 A 
ATOM      2  C   UNL     1     -14.935   4.360 -14.069  0.00  0.00    +0.028 A 
ATOM      3  C   UNL     1     -14.483   4.588 -12.738  0.00  0.00    +0.012 A 
ATOM      4  C   UNL     1     -15.296   5.083 -11.717  0.00  0.00    +0.001 A 
ATOM      5  C   UNL     1     -16.616   5.369 -11.993  0.00  0.00    +0.001 A 
ATOM      6  C   UNL     1     -17.103   5.145 -13.281  0.00  0.00    +0.012 A 
ATOM      7  C   UNL     1     -16.308   4.639 -14.348  0.00  0.00    +0.028 A 
ATOM      8  C   UNL     1     -16.884   4.436 -15.644  0.00  0.00    +0.132 A 
ATOM      9  C   UNL     1     -15.974   3.966 -16.654  0.00  0.00    +0.029 A 
ATOM     10  C   UNL     1     -16.466   3.782 -17.970  0.00  0.00    +0.013 A 
ATOM     11  C   UNL     1     -15.669   3.433 -19.054  0.00  0.00    +0.017 A 
ATOM     12  C   UNL     1     -14.315   3.218 -18.860  0.00  0.00    +0.081 A 
ATOM     13  C   UNL     1     -13.777   3.259 -17.555  0.00  0.00    +0.057 A 
ATOM     14  C   UNL     1     -14.580   3.692 -16.411  0.00  0.00    +0.050 A 
ENDROOT
BRANCH  12  15
ATOM     15  C   UNL     1     -13.495   3.087 -20.097  0.00  0.00    +0.339 C 
ATOM     16  O   UNL     1     -13.185   4.033 -20.810  0.00  0.00    -0.245 OA
BRANCH  15  17
ATOM     17  O   UNL     1     -13.006   1.841 -20.299  0.00  0.00    -0.477 OA
ATOM     18  H   UNL     1     -12.797   1.425 -19.425  0.00  0.00    +0.295 HD
ENDBRANCH  15  17
ENDBRANCH  12  15
BRANCH  13  19
ATOM     19  N   UNL     1     -12.375   2.962 -17.337  0.00  0.00    -0.313 N 
ATOM     20  H   UNL     1     -12.116   3.622 -16.557  0.00  0.00    +0.152 HD
BRANCH  19  21
ATOM     21  C   UNL     1     -11.739   1.718 -17.068  0.00  0.00    +0.031 A 
ATOM     22  C   UNL     1     -10.366   1.626 -17.353  0.00  0.00    +0.023 A 
ATOM     23  C   UNL     1      -9.677   0.417 -17.234  0.00  0.00    +0.002 A 
ATOM     24  C   UNL     1     -10.357  -0.729 -16.836  0.00  0.00    +0.000 A 
ATOM     25  C   UNL     1     -11.716  -0.655 -16.540  0.00  0.00    +0.002 A 
ATOM     26  C   UNL     1     -12.401   0.562 -16.650  0.00  0.00    +0.023 A 
ENDBRANCH  19  21
ENDBRANCH  13  19
BRANCH   1  27
ATOM     27  O   UNL     1     -12.776   3.657 -14.807  0.00  0.00    -0.505 OA
ATOM     28  H   UNL     1     -12.121   4.272 -15.076  0.00  0.00    +0.292 HD
ENDBRANCH   1  27
BRANCH   8  29
ATOM     29  O   UNL     1     -18.133   4.679 -15.890  0.00  0.00    -0.506 OA
ATOM     30  H   UNL     1     -18.369   5.362 -16.486  0.00  0.00    +0.292 HD
ENDBRANCH   8  29
TORSDOF 6
ENDMDL
