MODEL 1
REMARK VINA RESULT:      -5.4      0.000      0.000
REMARK  Name = min_compound951.pdb
REMARK  0 active torsions:
REMARK  status: ('A' for Active; 'I' for Inactive)
REMARK                            x       y       z     vdW  Elec       q    Type
REMARK                         _______ _______ _______ _____ _____    ______ ____
ROOT
ATOM      1 CL   UNL     1     -11.970   6.355 -17.580  0.00  0.00    -0.080 Cl
ATOM      2  C   UNL     1     -12.044   4.638 -17.846  0.00  0.00    +0.081 A 
ATOM      3  C   UNL     1     -12.900   4.095 -18.825  0.00  0.00    +0.081 A 
ATOM      4  C   UNL     1     -12.957   2.703 -19.036  0.00  0.00    +0.088 A 
ATOM      5 CL   UNL     1     -13.972   1.951 -20.209  0.00  0.00    -0.080 Cl
ATOM      6  C   UNL     1     -12.139   1.898 -18.243  0.00  0.00    +0.107 A 
ATOM      7  N   UNL     1     -11.938   0.547 -18.174  0.00  0.00    -0.256 N 
ATOM      8  N   UNL     1     -11.035   0.228 -17.237  0.00  0.00    -0.067 NA
ATOM      9  N   UNL     1     -10.626   1.357 -16.675  0.00  0.00    -0.128 NA
ATOM     10  H   UNL     1     -12.368  -0.195 -18.717  0.00  0.00    +0.191 HD
ATOM     11  C   UNL     1     -11.285   2.402 -17.271  0.00  0.00    +0.134 A 
ATOM     12 CL   UNL     1     -13.903   5.139 -19.791  0.00  0.00    -0.080 Cl
ATOM     13  C   UNL     1     -11.238   3.788 -17.071  0.00  0.00    +0.090 A 
ATOM     14 CL   UNL     1     -10.153   4.300 -15.849  0.00  0.00    -0.080 Cl
ENDROOT
TORSDOF 0
ENDMDL
MODEL 2
REMARK VINA RESULT:      -5.1      0.308      3.194
REMARK  Name = min_compound951.pdb
REMARK  0 active torsions:
REMARK  status: ('A' for Active; 'I' for Inactive)
REMARK                            x       y       z     vdW  Elec       q    Type
REMARK                         _______ _______ _______ _____ _____    ______ ____
ROOT
ATOM      1 CL   UNL     1     -13.652   5.211 -19.760  0.00  0.00    -0.080 Cl
ATOM      2  C   UNL     1     -12.721   4.191 -18.704  0.00  0.00    +0.081 A 
ATOM      3  C   UNL     1     -11.829   4.747 -17.764  0.00  0.00    +0.081 A 
ATOM      4  C   UNL     1     -11.077   3.915 -16.910  0.00  0.00    +0.088 A 
ATOM      5 CL   UNL     1      -9.964   4.505 -15.733  0.00  0.00    -0.080 Cl
ATOM      6  C   UNL     1     -11.252   2.537 -17.036  0.00  0.00    +0.107 A 
ATOM      7  N   UNL     1     -10.705   1.461 -16.393  0.00  0.00    -0.256 N 
ATOM      8  N   UNL     1     -11.190   0.304 -16.863  0.00  0.00    -0.067 NA
ATOM      9  N   UNL     1     -12.061   0.596 -17.820  0.00  0.00    -0.128 NA
ATOM     10  H   UNL     1     -10.017   1.441 -15.647  0.00  0.00    +0.191 HD
ATOM     11  C   UNL     1     -12.123   1.959 -17.951  0.00  0.00    +0.134 A 
ATOM     12 CL   UNL     1     -11.644   6.473 -17.644  0.00  0.00    -0.080 Cl
ATOM     13  C   UNL     1     -12.865   2.797 -18.794  0.00  0.00    +0.090 A 
ATOM     14 CL   UNL     1     -13.905   1.980 -19.882  0.00  0.00    -0.080 Cl
ENDROOT
TORSDOF 0
ENDMDL
MODEL 3
REMARK VINA RESULT:      -5.1     12.188     12.751
REMARK  Name = min_compound951.pdb
REMARK  0 active torsions:
REMARK  status: ('A' for Active; 'I' for Inactive)
REMARK                            x       y       z     vdW  Elec       q    Type
REMARK                         _______ _______ _______ _____ _____    ______ ____
ROOT
ATOM      1 CL   UNL     1     -17.278   3.762  -6.303  0.00  0.00    -0.080 Cl
ATOM      2  C   UNL     1     -16.639   2.146  -6.287  0.00  0.00    +0.081 A 
ATOM      3  C   UNL     1     -16.920   1.247  -7.336  0.00  0.00    +0.081 A 
ATOM      4  C   UNL     1     -16.399  -0.062  -7.319  0.00  0.00    +0.088 A 
ATOM      5 CL   UNL     1     -16.689  -1.227  -8.556  0.00  0.00    -0.080 Cl
ATOM      6  C   UNL     1     -15.603  -0.423  -6.231  0.00  0.00    +0.107 A 
ATOM      7  N   UNL     1     -14.949  -1.575  -5.891  0.00  0.00    -0.256 N 
ATOM      8  N   UNL     1     -14.298  -1.450  -4.727  0.00  0.00    -0.067 NA
ATOM      9  N   UNL     1     -14.510  -0.218  -4.281  0.00  0.00    -0.128 NA
ATOM     10  H   UNL     1     -14.904  -2.459  -6.388  0.00  0.00    +0.191 HD
ATOM     11  C   UNL     1     -15.308   0.438  -5.183  0.00  0.00    +0.134 A 
ATOM     12 CL   UNL     1     -17.918   1.743  -8.673  0.00  0.00    -0.080 Cl
ATOM     13  C   UNL     1     -15.832   1.737  -5.213  0.00  0.00    +0.090 A 
ATOM     14 CL   UNL     1     -15.406   2.713  -3.872  0.00  0.00    -0.080 Cl
ENDROOT
TORSDOF 0
ENDMDL
MODEL 4
REMARK VINA RESULT:      -5.0     12.929     13.643
REMARK  Name = min_compound951.pdb
REMARK  0 active torsions:
REMARK  status: ('A' for Active; 'I' for Inactive)
REMARK                            x       y       z     vdW  Elec       q    Type
REMARK                         _______ _______ _______ _____ _____    ______ ____
ROOT
ATOM      1 CL   UNL     1     -13.685  -0.336  -5.605  0.00  0.00    -0.080 Cl
ATOM      2  C   UNL     1     -14.933   0.874  -5.589  0.00  0.00    +0.081 A 
ATOM      3  C   UNL     1     -16.003   0.822  -6.504  0.00  0.00    +0.081 A 
ATOM      4  C   UNL     1     -17.012   1.806  -6.486  0.00  0.00    +0.088 A 
ATOM      5 CL   UNL     1     -18.355   1.822  -7.566  0.00  0.00    -0.080 Cl
ATOM      6  C   UNL     1     -16.905   2.820  -5.535  0.00  0.00    +0.107 A 
ATOM      7  N   UNL     1     -17.676   3.908  -5.235  0.00  0.00    -0.256 N 
ATOM      8  N   UNL     1     -17.164   4.614  -4.217  0.00  0.00    -0.067 NA
ATOM      9  N   UNL     1     -16.051   4.005  -3.830  0.00  0.00    -0.128 NA
ATOM     10  H   UNL     1     -18.538   4.223  -5.668  0.00  0.00    +0.191 HD
ATOM     11  C   UNL     1     -15.863   2.900  -4.619  0.00  0.00    +0.134 A 
ATOM     12 CL   UNL     1     -16.095  -0.463  -7.674  0.00  0.00    -0.080 Cl
ATOM     13  C   UNL     1     -14.867   1.915  -4.648  0.00  0.00    +0.090 A 
ATOM     14 CL   UNL     1     -13.632   2.110  -3.477  0.00  0.00    -0.080 Cl
ENDROOT
TORSDOF 0
ENDMDL
MODEL 5
REMARK VINA RESULT:      -4.9     12.617     13.453
REMARK  Name = min_compound951.pdb
REMARK  0 active torsions:
REMARK  status: ('A' for Active; 'I' for Inactive)
REMARK                            x       y       z     vdW  Elec       q    Type
REMARK                         _______ _______ _______ _____ _____    ______ ____
ROOT
ATOM      1 CL   UNL     1     -16.641   2.166  -8.865  0.00  0.00    -0.080 Cl
ATOM      2  C   UNL     1     -16.804   0.989  -7.596  0.00  0.00    +0.081 A 
ATOM      3  C   UNL     1     -15.677   0.535  -6.883  0.00  0.00    +0.081 A 
ATOM      4  C   UNL     1     -15.814  -0.420  -5.855  0.00  0.00    +0.088 A 
ATOM      5 CL   UNL     1     -14.494  -1.032  -4.931  0.00  0.00    -0.080 Cl
ATOM      6  C   UNL     1     -17.099  -0.887  -5.579  0.00  0.00    +0.107 A 
ATOM      7  N   UNL     1     -17.595  -1.788  -4.678  0.00  0.00    -0.256 N 
ATOM      8  N   UNL     1     -18.924  -1.917  -4.785  0.00  0.00    -0.067 NA
ATOM      9  N   UNL     1     -19.327  -1.107  -5.755  0.00  0.00    -0.128 NA
ATOM     10  H   UNL     1     -17.101  -2.336  -3.980  0.00  0.00    +0.191 HD
ATOM     11  C   UNL     1     -18.230  -0.460  -6.264  0.00  0.00    +0.134 A 
ATOM     12 CL   UNL     1     -14.092   1.147  -7.262  0.00  0.00    -0.080 Cl
ATOM     13  C   UNL     1     -18.079   0.489  -7.283  0.00  0.00    +0.090 A 
ATOM     14 CL   UNL     1     -19.536   0.945  -8.060  0.00  0.00    -0.080 Cl
ENDROOT
TORSDOF 0
ENDMDL
MODEL 6
REMARK VINA RESULT:      -4.9     13.035     14.085
REMARK  Name = min_compound951.pdb
REMARK  0 active torsions:
REMARK  status: ('A' for Active; 'I' for Inactive)
REMARK                            x       y       z     vdW  Elec       q    Type
REMARK                         _______ _______ _______ _____ _____    ______ ____
ROOT
ATOM      1 CL   UNL     1     -16.134  -0.538  -7.676  0.00  0.00    -0.080 Cl
ATOM      2  C   UNL     1     -16.112   0.722  -6.479  0.00  0.00    +0.081 A 
ATOM      3  C   UNL     1     -15.031   0.850  -5.584  0.00  0.00    +0.081 A 
ATOM      4  C   UNL     1     -15.018   1.873  -4.615  0.00  0.00    +0.088 A 
ATOM      5 CL   UNL     1     -13.741   2.105  -3.481  0.00  0.00    -0.080 Cl
ATOM      6  C   UNL     1     -16.109   2.742  -4.582  0.00  0.00    +0.107 A 
ATOM      7  N   UNL     1     -16.426   3.818  -3.800  0.00  0.00    -0.256 N 
ATOM      8  N   UNL     1     -17.606   4.352  -4.146  0.00  0.00    -0.067 NA
ATOM      9  N   UNL     1     -18.085   3.640  -5.158  0.00  0.00    -0.128 NA
ATOM     10  H   UNL     1     -15.903   4.233  -3.036  0.00  0.00    +0.191 HD
ATOM     11  C   UNL     1     -17.189   2.643  -5.450  0.00  0.00    +0.134 A 
ATOM     12 CL   UNL     1     -13.691  -0.259  -5.662  0.00  0.00    -0.080 Cl
ATOM     13  C   UNL     1     -17.189   1.621  -6.408  0.00  0.00    +0.090 A 
ATOM     14 CL   UNL     1     -18.568   1.591  -7.424  0.00  0.00    -0.080 Cl
ENDROOT
TORSDOF 0
ENDMDL
MODEL 7
REMARK VINA RESULT:      -4.9      2.561      3.603
REMARK  Name = min_compound951.pdb
REMARK  0 active torsions:
REMARK  status: ('A' for Active; 'I' for Inactive)
REMARK                            x       y       z     vdW  Elec       q    Type
REMARK                         _______ _______ _______ _____ _____    ______ ____
ROOT
ATOM      1 CL   UNL     1     -15.435   1.751 -15.542  0.00  0.00    -0.080 Cl
ATOM      2  C   UNL     1     -13.820   2.057 -16.108  0.00  0.00    +0.081 A 
ATOM      3  C   UNL     1     -13.366   3.375 -16.315  0.00  0.00    +0.081 A 
ATOM      4  C   UNL     1     -12.055   3.619 -16.774  0.00  0.00    +0.088 A 
ATOM      5 CL   UNL     1     -11.415   5.194 -17.056  0.00  0.00    -0.080 Cl
ATOM      6  C   UNL     1     -11.240   2.511 -17.009  0.00  0.00    +0.107 A 
ATOM      7  N   UNL     1      -9.951   2.373 -17.445  0.00  0.00    -0.256 N 
ATOM      8  N   UNL     1      -9.589   1.085 -17.518  0.00  0.00    -0.067 NA
ATOM      9  N   UNL     1     -10.627   0.355 -17.134  0.00  0.00    -0.128 NA
ATOM     10  H   UNL     1      -9.280   3.089 -17.703  0.00  0.00    +0.191 HD
ATOM     11  C   UNL     1     -11.658   1.201 -16.814  0.00  0.00    +0.134 A 
ATOM     12 CL   UNL     1     -14.419   4.726 -16.008  0.00  0.00    -0.080 Cl
ATOM     13  C   UNL     1     -12.963   0.973 -16.358  0.00  0.00    +0.090 A 
ATOM     14 CL   UNL     1     -13.373  -0.677 -16.153  0.00  0.00    -0.080 Cl
ENDROOT
TORSDOF 0
ENDMDL
MODEL 8
REMARK VINA RESULT:      -4.8     13.352     14.403
REMARK  Name = min_compound951.pdb
REMARK  0 active torsions:
REMARK  status: ('A' for Active; 'I' for Inactive)
REMARK                            x       y       z     vdW  Elec       q    Type
REMARK                         _______ _______ _______ _____ _____    ______ ____
ROOT
ATOM      1 CL   UNL     1     -14.155   1.277  -7.126  0.00  0.00    -0.080 Cl
ATOM      2  C   UNL     1     -15.224   0.387  -6.084  0.00  0.00    +0.081 A 
ATOM      3  C   UNL     1     -14.869   0.116  -4.747  0.00  0.00    +0.081 A 
ATOM      4  C   UNL     1     -15.740  -0.606  -3.906  0.00  0.00    +0.088 A 
ATOM      5 CL   UNL     1     -15.390  -0.984  -2.261  0.00  0.00    -0.080 Cl
ATOM      6  C   UNL     1     -16.952  -1.033  -4.449  0.00  0.00    +0.107 A 
ATOM      7  N   UNL     1     -18.010  -1.736  -3.942  0.00  0.00    -0.256 N 
ATOM      8  N   UNL     1     -18.973  -1.912  -4.857  0.00  0.00    -0.067 NA
ATOM      9  N   UNL     1     -18.568  -1.330  -5.978  0.00  0.00    -0.128 NA
ATOM     10  H   UNL     1     -18.140  -2.116  -3.010  0.00  0.00    +0.191 HD
ATOM     11  C   UNL     1     -17.331  -0.781  -5.761  0.00  0.00    +0.134 A 
ATOM     12 CL   UNL     1     -13.345   0.669  -4.114  0.00  0.00    -0.080 Cl
ATOM     13  C   UNL     1     -16.456  -0.063  -6.587  0.00  0.00    +0.090 A 
ATOM     14 CL   UNL     1     -17.022   0.191  -8.183  0.00  0.00    -0.080 Cl
ENDROOT
TORSDOF 0
ENDMDL
MODEL 9
REMARK VINA RESULT:      -4.8      6.175      6.981
REMARK  Name = min_compound951.pdb
REMARK  0 active torsions:
REMARK  status: ('A' for Active; 'I' for Inactive)
REMARK                            x       y       z     vdW  Elec       q    Type
REMARK                         _______ _______ _______ _____ _____    ______ ____
ROOT
ATOM      1 CL   UNL     1     -15.215   3.529 -14.978  0.00  0.00    -0.080 Cl
ATOM      2  C   UNL     1     -15.210   5.248 -15.236  0.00  0.00    +0.081 A 
ATOM      3  C   UNL     1     -14.620   5.804 -16.389  0.00  0.00    +0.081 A 
ATOM      4  C   UNL     1     -14.618   7.199 -16.593  0.00  0.00    +0.088 A 
ATOM      5 CL   UNL     1     -13.921   7.965 -17.971  0.00  0.00    -0.080 Cl
ATOM      6  C   UNL     1     -15.219   7.992 -15.617  0.00  0.00    +0.107 A 
ATOM      7  N   UNL     1     -15.399   9.342 -15.486  0.00  0.00    -0.256 N 
ATOM      8  N   UNL     1     -16.046   9.649 -14.354  0.00  0.00    -0.067 NA
ATOM      9  N   UNL     1     -16.304   8.512 -13.721  0.00  0.00    -0.128 NA
ATOM     10  H   UNL     1     -15.115  10.090 -16.110  0.00  0.00    +0.191 HD
ATOM     11  C   UNL     1     -15.809   7.476 -14.470  0.00  0.00    +0.134 A 
ATOM     12 CL   UNL     1     -13.881   4.773 -17.581  0.00  0.00    -0.080 Cl
ATOM     13  C   UNL     1     -15.804   6.088 -14.279  0.00  0.00    +0.090 A 
ATOM     14 CL   UNL     1     -16.557   5.560 -12.835  0.00  0.00    -0.080 Cl
ENDROOT
TORSDOF 0
ENDMDL
