MODEL 1
REMARK VINA RESULT:      -8.3      0.000      0.000
REMARK  Name = min_compound972.pdb
REMARK  4 active torsions:
REMARK  status: ('A' for Active; 'I' for Inactive)
REMARK    1  A    between atoms: _3  and  _6
REMARK    2  A    between atoms: _4  and  _21
REMARK    3  A    between atoms: _10  and  _19
REMARK    4  A    between atoms: _15  and  _19
REMARK                            x       y       z     vdW  Elec       q    Type
REMARK                         _______ _______ _______ _____ _____    ______ ____
ROOT
ATOM      1  C   UNL     1     -15.547   3.465 -13.992  0.00  0.00    -0.018 A 
ATOM      2  C   UNL     1     -15.961   2.395 -14.798  0.00  0.00    +0.009 A 
ATOM      3  C   UNL     1     -15.198   1.980 -15.895  0.00  0.00    +0.012 A 
ATOM      4  C   UNL     1     -13.997   2.621 -16.227  0.00  0.00    +0.022 A 
ATOM      5  C   UNL     1     -13.579   3.689 -15.425  0.00  0.00    +0.012 A 
ATOM      6  C   UNL     1     -14.346   4.110 -14.328  0.00  0.00    +0.009 A 
ENDROOT
BRANCH   1   8
ATOM      7  C   UNL     1     -15.950   4.982 -12.041  0.00  0.00    +0.012 A 
ATOM      8  C   UNL     1     -16.341   3.879 -12.822  0.00  0.00    -0.018 A 
ATOM      9  C   UNL     1     -17.503   3.187 -12.446  0.00  0.00    +0.012 A 
ATOM     10  C   UNL     1     -18.248   3.575 -11.327  0.00  0.00    +0.046 A 
ATOM     11  C   UNL     1     -17.833   4.669 -10.575  0.00  0.00    +0.117 A 
ATOM     12  C   UNL     1     -16.691   5.376 -10.923  0.00  0.00    +0.046 A 
BRANCH  11  13
ATOM     13  O   UNL     1     -18.527   5.080  -9.475  0.00  0.00    -0.507 OA
ATOM     14  H   UNL     1     -18.524   6.051  -9.461  0.00  0.00    +0.292 HD
ENDBRANCH  11  13
ENDBRANCH   1   8
BRANCH   4  15
ATOM     15  C   UNL     1     -13.171   2.137 -17.396  0.00  0.00    +0.193 C 
ATOM     16  O   UNL     1     -13.460   2.527 -18.569  0.00  0.00    -0.287 OA
BRANCH  15  17
ATOM     17  C   UNL     1     -12.004   1.199 -17.172  0.00  0.00    +0.022 A 
ATOM     18  C   UNL     1     -12.178  -0.067 -16.591  0.00  0.00    +0.012 A 
ATOM     19  C   UNL     1     -11.087  -0.919 -16.375  0.00  0.00    +0.001 A 
ATOM     20  C   UNL     1      -9.801  -0.513 -16.724  0.00  0.00    +0.000 A 
ATOM     21  C   UNL     1      -9.604   0.745 -17.289  0.00  0.00    +0.001 A 
ATOM     22  C   UNL     1     -10.696   1.588 -17.509  0.00  0.00    +0.012 A 
ENDBRANCH  15  17
ENDBRANCH   4  15
TORSDOF 4
ENDMDL
MODEL 2
REMARK VINA RESULT:      -8.3      0.055      1.487
REMARK  Name = min_compound972.pdb
REMARK  4 active torsions:
REMARK  status: ('A' for Active; 'I' for Inactive)
REMARK    1  A    between atoms: _3  and  _6
REMARK    2  A    between atoms: _4  and  _21
REMARK    3  A    between atoms: _10  and  _19
REMARK    4  A    between atoms: _15  and  _19
REMARK                            x       y       z     vdW  Elec       q    Type
REMARK                         _______ _______ _______ _____ _____    ______ ____
ROOT
ATOM      1  C   UNL     1     -15.547   3.477 -13.990  0.00  0.00    -0.018 A 
ATOM      2  C   UNL     1     -15.958   2.399 -14.788  0.00  0.00    +0.009 A 
ATOM      3  C   UNL     1     -15.194   1.978 -15.881  0.00  0.00    +0.012 A 
ATOM      4  C   UNL     1     -13.994   2.620 -16.219  0.00  0.00    +0.022 A 
ATOM      5  C   UNL     1     -13.580   3.696 -15.425  0.00  0.00    +0.012 A 
ATOM      6  C   UNL     1     -14.348   4.124 -14.332  0.00  0.00    +0.009 A 
ENDROOT
BRANCH   1   8
ATOM      7  C   UNL     1     -17.467   3.160 -12.414  0.00  0.00    +0.012 A 
ATOM      8  C   UNL     1     -16.342   3.899 -12.824  0.00  0.00    -0.018 A 
ATOM      9  C   UNL     1     -16.008   5.049 -12.090  0.00  0.00    +0.012 A 
ATOM     10  C   UNL     1     -16.773   5.453 -10.990  0.00  0.00    +0.046 A 
ATOM     11  C   UNL     1     -17.880   4.702 -10.612  0.00  0.00    +0.117 A 
ATOM     12  C   UNL     1     -18.233   3.558 -11.314  0.00  0.00    +0.046 A 
BRANCH  11  13
ATOM     13  O   UNL     1     -18.654   5.062  -9.548  0.00  0.00    -0.507 OA
ATOM     14  H   UNL     1     -19.488   4.566  -9.600  0.00  0.00    +0.292 HD
ENDBRANCH  11  13
ENDBRANCH   1   8
BRANCH   4  15
ATOM     15  C   UNL     1     -13.167   2.129 -17.383  0.00  0.00    +0.193 C 
ATOM     16  O   UNL     1     -13.470   2.493 -18.562  0.00  0.00    -0.287 OA
BRANCH  15  17
ATOM     17  C   UNL     1     -11.982   1.216 -17.149  0.00  0.00    +0.022 A 
ATOM     18  C   UNL     1     -10.680   1.593 -17.511  0.00  0.00    +0.012 A 
ATOM     19  C   UNL     1      -9.594   0.734 -17.303  0.00  0.00    +0.001 A 
ATOM     20  C   UNL     1      -9.795  -0.526 -16.740  0.00  0.00    +0.000 A 
ATOM     21  C   UNL     1     -11.081  -0.925 -16.386  0.00  0.00    +0.001 A 
ATOM     22  C   UNL     1     -12.160  -0.061 -16.589  0.00  0.00    +0.012 A 
ENDBRANCH  15  17
ENDBRANCH   4  15
TORSDOF 4
ENDMDL
MODEL 3
REMARK VINA RESULT:      -8.2      0.152      1.491
REMARK  Name = min_compound972.pdb
REMARK  4 active torsions:
REMARK  status: ('A' for Active; 'I' for Inactive)
REMARK    1  A    between atoms: _3  and  _6
REMARK    2  A    between atoms: _4  and  _21
REMARK    3  A    between atoms: _10  and  _19
REMARK    4  A    between atoms: _15  and  _19
REMARK                            x       y       z     vdW  Elec       q    Type
REMARK                         _______ _______ _______ _____ _____    ______ ____
ROOT
ATOM      1  C   UNL     1     -15.631   3.434 -13.963  0.00  0.00    -0.018 A 
ATOM      2  C   UNL     1     -14.434   4.091 -14.283  0.00  0.00    +0.009 A 
ATOM      3  C   UNL     1     -13.645   3.671 -15.358  0.00  0.00    +0.012 A 
ATOM      4  C   UNL     1     -14.021   2.578 -16.150  0.00  0.00    +0.022 A 
ATOM      5  C   UNL     1     -15.214   1.918 -15.836  0.00  0.00    +0.012 A 
ATOM      6  C   UNL     1     -16.005   2.335 -14.754  0.00  0.00    +0.009 A 
ENDROOT
BRANCH   1   8
ATOM      7  C   UNL     1     -16.117   5.038 -12.103  0.00  0.00    +0.012 A 
ATOM      8  C   UNL     1     -16.473   3.898 -12.846  0.00  0.00    -0.018 A 
ATOM      9  C   UNL     1     -17.648   3.218 -12.486  0.00  0.00    +0.012 A 
ATOM     10  C   UNL     1     -18.439   3.655 -11.417  0.00  0.00    +0.046 A 
ATOM     11  C   UNL     1     -18.057   4.784 -10.701  0.00  0.00    +0.117 A 
ATOM     12  C   UNL     1     -16.904   5.480 -11.035  0.00  0.00    +0.046 A 
BRANCH  11  13
ATOM     13  O   UNL     1     -18.797   5.243  -9.651  0.00  0.00    -0.507 OA
ATOM     14  H   UNL     1     -18.353   6.026  -9.287  0.00  0.00    +0.292 HD
ENDBRANCH  11  13
ENDBRANCH   1   8
BRANCH   4  15
ATOM     15  C   UNL     1     -13.171   2.160 -17.327  0.00  0.00    +0.193 C 
ATOM     16  O   UNL     1     -13.456   2.590 -18.488  0.00  0.00    -0.287 OA
BRANCH  15  17
ATOM     17  C   UNL     1     -11.984   1.242 -17.126  0.00  0.00    +0.022 A 
ATOM     18  C   UNL     1     -10.687   1.622 -17.505  0.00  0.00    +0.012 A 
ATOM     19  C   UNL     1      -9.600   0.757 -17.327  0.00  0.00    +0.001 A 
ATOM     20  C   UNL     1      -9.794  -0.510 -16.780  0.00  0.00    +0.000 A 
ATOM     21  C   UNL     1     -11.075  -0.912 -16.410  0.00  0.00    +0.001 A 
ATOM     22  C   UNL     1     -12.155  -0.043 -16.583  0.00  0.00    +0.012 A 
ENDBRANCH  15  17
ENDBRANCH   4  15
TORSDOF 4
ENDMDL
MODEL 4
REMARK VINA RESULT:      -7.8      2.997      3.967
REMARK  Name = min_compound972.pdb
REMARK  4 active torsions:
REMARK  status: ('A' for Active; 'I' for Inactive)
REMARK    1  A    between atoms: _3  and  _6
REMARK    2  A    between atoms: _4  and  _21
REMARK    3  A    between atoms: _10  and  _19
REMARK    4  A    between atoms: _15  and  _19
REMARK                            x       y       z     vdW  Elec       q    Type
REMARK                         _______ _______ _______ _____ _____    ______ ____
ROOT
ATOM      1  C   UNL     1     -14.318   5.404 -16.524  0.00  0.00    -0.018 A 
ATOM      2  C   UNL     1     -13.132   5.481 -17.269  0.00  0.00    +0.009 A 
ATOM      3  C   UNL     1     -12.570   4.339 -17.851  0.00  0.00    +0.012 A 
ATOM      4  C   UNL     1     -13.170   3.081 -17.706  0.00  0.00    +0.022 A 
ATOM      5  C   UNL     1     -14.353   2.999 -16.963  0.00  0.00    +0.012 A 
ATOM      6  C   UNL     1     -14.915   4.141 -16.374  0.00  0.00    +0.009 A 
ENDROOT
BRANCH   1   8
ATOM      7  C   UNL     1     -15.614   6.551 -14.715  0.00  0.00    +0.012 A 
ATOM      8  C   UNL     1     -14.920   6.613 -15.937  0.00  0.00    -0.018 A 
ATOM      9  C   UNL     1     -14.826   7.860 -16.577  0.00  0.00    +0.012 A 
ATOM     10  C   UNL     1     -15.409   9.005 -16.023  0.00  0.00    +0.046 A 
ATOM     11  C   UNL     1     -16.091   8.909 -14.815  0.00  0.00    +0.117 A 
ATOM     12  C   UNL     1     -16.198   7.692 -14.156  0.00  0.00    +0.046 A 
BRANCH  11  13
ATOM     13  O   UNL     1     -16.677   9.999 -14.241  0.00  0.00    -0.507 OA
ATOM     14  H   UNL     1     -17.512   9.714 -13.835  0.00  0.00    +0.292 HD
ENDBRANCH  11  13
ENDBRANCH   1   8
BRANCH   4  15
ATOM     15  C   UNL     1     -12.564   1.866 -18.370  0.00  0.00    +0.193 C 
ATOM     16  O   UNL     1     -12.841   1.614 -19.583  0.00  0.00    -0.287 OA
BRANCH  15  17
ATOM     17  C   UNL     1     -11.629   0.959 -17.598  0.00  0.00    +0.022 A 
ATOM     18  C   UNL     1     -10.236   1.107 -17.669  0.00  0.00    +0.012 A 
ATOM     19  C   UNL     1      -9.382   0.252 -16.962  0.00  0.00    +0.001 A 
ATOM     20  C   UNL     1      -9.907  -0.777 -16.182  0.00  0.00    +0.000 A 
ATOM     21  C   UNL     1     -11.287  -0.950 -16.109  0.00  0.00    +0.001 A 
ATOM     22  C   UNL     1     -12.135  -0.089 -16.811  0.00  0.00    +0.012 A 
ENDBRANCH  15  17
ENDBRANCH   4  15
TORSDOF 4
ENDMDL
MODEL 5
REMARK VINA RESULT:      -7.6      4.870      7.964
REMARK  Name = min_compound972.pdb
REMARK  4 active torsions:
REMARK  status: ('A' for Active; 'I' for Inactive)
REMARK    1  A    between atoms: _3  and  _6
REMARK    2  A    between atoms: _4  and  _21
REMARK    3  A    between atoms: _10  and  _19
REMARK    4  A    between atoms: _15  and  _19
REMARK                            x       y       z     vdW  Elec       q    Type
REMARK                         _______ _______ _______ _____ _____    ______ ____
ROOT
ATOM      1  C   UNL     1     -12.441   5.958 -19.628  0.00  0.00    -0.018 A 
ATOM      2  C   UNL     1     -11.921   6.353 -18.387  0.00  0.00    +0.009 A 
ATOM      3  C   UNL     1     -12.005   5.515 -17.270  0.00  0.00    +0.012 A 
ATOM      4  C   UNL     1     -12.614   4.256 -17.352  0.00  0.00    +0.022 A 
ATOM      5  C   UNL     1     -13.134   3.857 -18.589  0.00  0.00    +0.012 A 
ATOM      6  C   UNL     1     -13.055   4.698 -19.709  0.00  0.00    +0.009 A 
ENDROOT
BRANCH   1   8
ATOM      7  C   UNL     1     -11.089   7.406 -21.161  0.00  0.00    +0.012 A 
ATOM      8  C   UNL     1     -12.325   6.834 -20.808  0.00  0.00    -0.018 A 
ATOM      9  C   UNL     1     -13.439   7.128 -21.611  0.00  0.00    +0.012 A 
ATOM     10  C   UNL     1     -13.327   7.969 -22.724  0.00  0.00    +0.046 A 
ATOM     11  C   UNL     1     -12.092   8.521 -23.044  0.00  0.00    +0.117 A 
ATOM     12  C   UNL     1     -10.972   8.246 -22.272  0.00  0.00    +0.046 A 
BRANCH  11  13
ATOM     13  O   UNL     1     -11.939   9.348 -24.118  0.00  0.00    -0.507 OA
ATOM     14  H   UNL     1     -12.755   9.314 -24.643  0.00  0.00    +0.292 HD
ENDBRANCH  11  13
ENDBRANCH   1   8
BRANCH   4  15
ATOM     15  C   UNL     1     -12.665   3.353 -16.142  0.00  0.00    +0.193 C 
ATOM     16  O   UNL     1     -13.300   3.729 -15.108  0.00  0.00    -0.287 OA
BRANCH  15  17
ATOM     17  C   UNL     1     -11.973   2.006 -16.163  0.00  0.00    +0.022 A 
ATOM     18  C   UNL     1     -12.623   0.851 -16.624  0.00  0.00    +0.012 A 
ATOM     19  C   UNL     1     -11.977  -0.391 -16.624  0.00  0.00    +0.001 A 
ATOM     20  C   UNL     1     -10.671  -0.502 -16.148  0.00  0.00    +0.000 A 
ATOM     21  C   UNL     1     -10.013   0.629 -15.672  0.00  0.00    +0.001 A 
ATOM     22  C   UNL     1     -10.660   1.868 -15.682  0.00  0.00    +0.012 A 
ENDBRANCH  15  17
ENDBRANCH   4  15
TORSDOF 4
ENDMDL
MODEL 6
REMARK VINA RESULT:      -7.5      5.519      9.802
REMARK  Name = min_compound972.pdb
REMARK  4 active torsions:
REMARK  status: ('A' for Active; 'I' for Inactive)
REMARK    1  A    between atoms: _3  and  _6
REMARK    2  A    between atoms: _4  and  _21
REMARK    3  A    between atoms: _10  and  _19
REMARK    4  A    between atoms: _15  and  _19
REMARK                            x       y       z     vdW  Elec       q    Type
REMARK                         _______ _______ _______ _____ _____    ______ ____
ROOT
ATOM      1  C   UNL     1     -16.551   3.239  -9.200  0.00  0.00    -0.018 A 
ATOM      2  C   UNL     1     -17.191   4.070  -8.268  0.00  0.00    +0.009 A 
ATOM      3  C   UNL     1     -17.284   3.704  -6.921  0.00  0.00    +0.012 A 
ATOM      4  C   UNL     1     -16.745   2.497  -6.458  0.00  0.00    +0.022 A 
ATOM      5  C   UNL     1     -16.106   1.665  -7.384  0.00  0.00    +0.012 A 
ATOM      6  C   UNL     1     -16.016   2.027  -8.737  0.00  0.00    +0.009 A 
ENDROOT
BRANCH   1   8
ATOM      7  C   UNL     1     -17.265   3.077 -11.595  0.00  0.00    +0.012 A 
ATOM      8  C   UNL     1     -16.431   3.642 -10.613  0.00  0.00    -0.018 A 
ATOM      9  C   UNL     1     -15.483   4.594 -11.023  0.00  0.00    +0.012 A 
ATOM     10  C   UNL     1     -15.364   4.965 -12.366  0.00  0.00    +0.046 A 
ATOM     11  C   UNL     1     -16.201   4.386 -13.313  0.00  0.00    +0.117 A 
ATOM     12  C   UNL     1     -17.151   3.446 -12.939  0.00  0.00    +0.046 A 
BRANCH  11  13
ATOM     13  O   UNL     1     -16.117   4.717 -14.634  0.00  0.00    -0.507 OA
ATOM     14  H   UNL     1     -16.939   5.169 -14.885  0.00  0.00    +0.292 HD
ENDBRANCH  11  13
ENDBRANCH   1   8
BRANCH   4  15
ATOM     15  C   UNL     1     -16.828   2.136  -4.993  0.00  0.00    +0.193 C 
ATOM     16  O   UNL     1     -17.935   2.251  -4.383  0.00  0.00    -0.287 OA
BRANCH  15  17
ATOM     17  C   UNL     1     -15.602   1.634  -4.259  0.00  0.00    +0.022 A 
ATOM     18  C   UNL     1     -14.474   2.447  -4.068  0.00  0.00    +0.012 A 
ATOM     19  C   UNL     1     -13.342   1.966  -3.399  0.00  0.00    +0.001 A 
ATOM     20  C   UNL     1     -13.313   0.657  -2.922  0.00  0.00    +0.000 A 
ATOM     21  C   UNL     1     -14.416  -0.171  -3.114  0.00  0.00    +0.001 A 
ATOM     22  C   UNL     1     -15.546   0.316  -3.775  0.00  0.00    +0.012 A 
ENDBRANCH  15  17
ENDBRANCH   4  15
TORSDOF 4
ENDMDL
MODEL 7
REMARK VINA RESULT:      -7.3      2.166      3.137
REMARK  Name = min_compound972.pdb
REMARK  4 active torsions:
REMARK  status: ('A' for Active; 'I' for Inactive)
REMARK    1  A    between atoms: _3  and  _6
REMARK    2  A    between atoms: _4  and  _21
REMARK    3  A    between atoms: _10  and  _19
REMARK    4  A    between atoms: _15  and  _19
REMARK                            x       y       z     vdW  Elec       q    Type
REMARK                         _______ _______ _______ _____ _____    ______ ____
ROOT
ATOM      1  C   UNL     1     -16.539   3.443 -12.239  0.00  0.00    -0.018 A 
ATOM      2  C   UNL     1     -16.923   2.574 -13.271  0.00  0.00    +0.009 A 
ATOM      3  C   UNL     1     -16.297   2.618 -14.521  0.00  0.00    +0.012 A 
ATOM      4  C   UNL     1     -15.269   3.532 -14.787  0.00  0.00    +0.022 A 
ATOM      5  C   UNL     1     -14.883   4.402 -13.760  0.00  0.00    +0.012 A 
ATOM      6  C   UNL     1     -15.513   4.364 -12.507  0.00  0.00    +0.009 A 
ENDROOT
BRANCH   1   8
ATOM      7  C   UNL     1     -18.570   3.565 -10.778  0.00  0.00    +0.012 A 
ATOM      8  C   UNL     1     -17.183   3.374 -10.915  0.00  0.00    -0.018 A 
ATOM      9  C   UNL     1     -16.436   3.123  -9.753  0.00  0.00    +0.012 A 
ATOM     10  C   UNL     1     -17.048   3.069  -8.496  0.00  0.00    +0.046 A 
ATOM     11  C   UNL     1     -18.421   3.265  -8.395  0.00  0.00    +0.117 A 
ATOM     12  C   UNL     1     -19.187   3.511  -9.525  0.00  0.00    +0.046 A 
BRANCH  11  13
ATOM     13  O   UNL     1     -19.058   3.224  -7.189  0.00  0.00    -0.507 OA
ATOM     14  H   UNL     1     -18.929   4.081  -6.751  0.00  0.00    +0.292 HD
ENDBRANCH  11  13
ENDBRANCH   1   8
BRANCH   4  15
ATOM     15  C   UNL     1     -14.584   3.541 -16.133  0.00  0.00    +0.193 C 
ATOM     16  O   UNL     1     -15.270   3.347 -17.184  0.00  0.00    -0.287 OA
BRANCH  15  17
ATOM     17  C   UNL     1     -13.093   3.787 -16.231  0.00  0.00    +0.022 A 
ATOM     18  C   UNL     1     -12.569   4.822 -17.020  0.00  0.00    +0.012 A 
ATOM     19  C   UNL     1     -11.187   5.030 -17.114  0.00  0.00    +0.001 A 
ATOM     20  C   UNL     1     -10.305   4.195 -16.431  0.00  0.00    +0.000 A 
ATOM     21  C   UNL     1     -10.804   3.152 -15.654  0.00  0.00    +0.001 A 
ATOM     22  C   UNL     1     -12.183   2.954 -15.558  0.00  0.00    +0.012 A 
ENDBRANCH  15  17
ENDBRANCH   4  15
TORSDOF 4
ENDMDL
MODEL 8
REMARK VINA RESULT:      -7.3      5.981      8.949
REMARK  Name = min_compound972.pdb
REMARK  4 active torsions:
REMARK  status: ('A' for Active; 'I' for Inactive)
REMARK    1  A    between atoms: _3  and  _6
REMARK    2  A    between atoms: _4  and  _21
REMARK    3  A    between atoms: _10  and  _19
REMARK    4  A    between atoms: _15  and  _19
REMARK                            x       y       z     vdW  Elec       q    Type
REMARK                         _______ _______ _______ _____ _____    ______ ____
ROOT
ATOM      1  C   UNL     1     -16.059   0.950  -6.274  0.00  0.00    -0.018 A 
ATOM      2  C   UNL     1     -16.679   2.206  -6.191  0.00  0.00    +0.009 A 
ATOM      3  C   UNL     1     -17.231   2.814  -7.323  0.00  0.00    +0.012 A 
ATOM      4  C   UNL     1     -17.181   2.193  -8.578  0.00  0.00    +0.022 A 
ATOM      5  C   UNL     1     -16.564   0.940  -8.665  0.00  0.00    +0.012 A 
ATOM      6  C   UNL     1     -16.004   0.330  -7.532  0.00  0.00    +0.009 A 
ENDROOT
BRANCH   1   8
ATOM      7  C   UNL     1     -15.981  -0.951  -4.645  0.00  0.00    +0.012 A 
ATOM      8  C   UNL     1     -15.504   0.302  -5.073  0.00  0.00    -0.018 A 
ATOM      9  C   UNL     1     -14.490   0.912  -4.316  0.00  0.00    +0.012 A 
ATOM     10  C   UNL     1     -13.973   0.299  -3.169  0.00  0.00    +0.046 A 
ATOM     11  C   UNL     1     -14.469  -0.938  -2.773  0.00  0.00    +0.117 A 
ATOM     12  C   UNL     1     -15.467  -1.568  -3.501  0.00  0.00    +0.046 A 
BRANCH  11  13
ATOM     13  O   UNL     1     -13.996  -1.569  -1.660  0.00  0.00    -0.507 OA
ATOM     14  H   UNL     1     -13.563  -2.392  -1.941  0.00  0.00    +0.292 HD
ENDBRANCH  11  13
ENDBRANCH   1   8
BRANCH   4  15
ATOM     15  C   UNL     1     -17.812   2.852  -9.782  0.00  0.00    +0.193 C 
ATOM     16  O   UNL     1     -19.077   2.948  -9.850  0.00  0.00    -0.287 OA
BRANCH  15  17
ATOM     17  C   UNL     1     -16.946   3.400 -10.896  0.00  0.00    +0.022 A 
ATOM     18  C   UNL     1     -17.185   3.077 -12.241  0.00  0.00    +0.012 A 
ATOM     19  C   UNL     1     -16.367   3.579 -13.261  0.00  0.00    +0.001 A 
ATOM     20  C   UNL     1     -15.285   4.401 -12.951  0.00  0.00    +0.000 A 
ATOM     21  C   UNL     1     -15.022   4.722 -11.622  0.00  0.00    +0.001 A 
ATOM     22  C   UNL     1     -15.845   4.225 -10.609  0.00  0.00    +0.012 A 
ENDBRANCH  15  17
ENDBRANCH   4  15
TORSDOF 4
ENDMDL
MODEL 9
REMARK VINA RESULT:      -7.2      3.329      7.856
REMARK  Name = min_compound972.pdb
REMARK  4 active torsions:
REMARK  status: ('A' for Active; 'I' for Inactive)
REMARK    1  A    between atoms: _3  and  _6
REMARK    2  A    between atoms: _4  and  _21
REMARK    3  A    between atoms: _10  and  _19
REMARK    4  A    between atoms: _15  and  _19
REMARK                            x       y       z     vdW  Elec       q    Type
REMARK                         _______ _______ _______ _____ _____    ______ ____
ROOT
ATOM      1  C   UNL     1     -15.747   4.261 -12.702  0.00  0.00    -0.018 A 
ATOM      2  C   UNL     1     -15.137   4.803 -11.561  0.00  0.00    +0.009 A 
ATOM      3  C   UNL     1     -15.535   4.415 -10.278  0.00  0.00    +0.012 A 
ATOM      4  C   UNL     1     -16.557   3.475 -10.087  0.00  0.00    +0.022 A 
ATOM      5  C   UNL     1     -17.168   2.931 -11.223  0.00  0.00    +0.012 A 
ATOM      6  C   UNL     1     -16.774   3.323 -12.512  0.00  0.00    +0.009 A 
ENDROOT
BRANCH   1   8
ATOM      7  C   UNL     1     -15.698   5.883 -14.610  0.00  0.00    +0.012 A 
ATOM      8  C   UNL     1     -15.305   4.652 -14.052  0.00  0.00    -0.018 A 
ATOM      9  C   UNL     1     -14.486   3.812 -14.824  0.00  0.00    +0.012 A 
ATOM     10  C   UNL     1     -14.077   4.182 -16.111  0.00  0.00    +0.046 A 
ATOM     11  C   UNL     1     -14.486   5.404 -16.634  0.00  0.00    +0.117 A 
ATOM     12  C   UNL     1     -15.291   6.258 -15.894  0.00  0.00    +0.046 A 
BRANCH  11  13
ATOM     13  O   UNL     1     -14.113   5.802 -17.884  0.00  0.00    -0.507 OA
ATOM     14  H   UNL     1     -14.694   5.362 -18.526  0.00  0.00    +0.292 HD
ENDBRANCH  11  13
ENDBRANCH   1   8
BRANCH   4  15
ATOM     15  C   UNL     1     -16.949   3.045  -8.693  0.00  0.00    +0.193 C 
ATOM     16  O   UNL     1     -17.714   3.788  -8.003  0.00  0.00    -0.287 OA
BRANCH  15  17
ATOM     17  C   UNL     1     -16.441   1.737  -8.124  0.00  0.00    +0.022 A 
ATOM     18  C   UNL     1     -15.180   1.641  -7.515  0.00  0.00    +0.012 A 
ATOM     19  C   UNL     1     -14.716   0.422  -7.006  0.00  0.00    +0.001 A 
ATOM     20  C   UNL     1     -15.499  -0.726  -7.111  0.00  0.00    +0.000 A 
ATOM     21  C   UNL     1     -16.747  -0.655  -7.725  0.00  0.00    +0.001 A 
ATOM     22  C   UNL     1     -17.209   0.565  -8.225  0.00  0.00    +0.012 A 
ENDBRANCH  15  17
ENDBRANCH   4  15
TORSDOF 4
ENDMDL
