MODEL 1
REMARK VINA RESULT:      -6.7      0.000      0.000
REMARK  Name = min_compound924.pdb
REMARK  6 active torsions:
REMARK  status: ('A' for Active; 'I' for Inactive)
REMARK    1  A    between atoms: _6  and  _7
REMARK    2  A    between atoms: _13  and  _18
REMARK    3  A    between atoms: _14  and  _15
REMARK    4  A    between atoms: _15  and  _16
REMARK    5  A    between atoms: _15  and  _17
REMARK    6  A    between atoms: _18  and  _19
REMARK                            x       y       z     vdW  Elec       q    Type
REMARK                         _______ _______ _______ _____ _____    ______ ____
ROOT
ATOM      1  C   UNL     1     -11.900   2.074 -18.056  0.00  0.00    +0.292 C 
ATOM      2  N   UNL     1     -11.889   3.352 -17.657  0.00  0.00    -0.042 NA
ATOM      3  C   UNL     1     -12.724   4.174 -18.269  0.00  0.00    +0.380 C 
ATOM      4  N   UNL     1     -12.667   5.534 -17.649  0.00  0.00    -0.236 N 
ATOM      5  H   UNL     1     -11.677   5.639 -17.439  0.00  0.00    +0.245 HD
ATOM      6  N   UNL     1     -13.526   3.719 -19.311  0.00  0.00    -0.167 N 
ATOM      7  H   UNL     1     -14.154   4.328 -19.762  0.00  0.00    +0.255 HD
ATOM      8  C   UNL     1     -13.422   2.390 -19.705  0.00  0.00    +0.305 C 
ATOM      9  N   UNL     1     -14.174   1.664 -20.771  0.00  0.00    -0.294 N 
ATOM     10  H   UNL     1     -13.477   1.040 -21.166  0.00  0.00    +0.151 HD
ATOM     11  N   UNL     1     -12.587   1.571 -19.090  0.00  0.00    -0.324 NA
ENDROOT
BRANCH   1  15
ATOM     12  N   UNL     1      -9.611  -0.696 -15.674  0.00  0.00    -0.263 NA
ATOM     13  C   UNL     1      -9.973  -0.980 -16.939  0.00  0.00    +0.111 A 
ATOM     14  C   UNL     1     -10.724  -0.130 -17.737  0.00  0.00    +0.034 A 
ATOM     15  C   UNL     1     -11.145   1.109 -17.226  0.00  0.00    +0.052 A 
ATOM     16  C   UNL     1     -10.768   1.408 -15.907  0.00  0.00    +0.034 A 
ATOM     17  C   UNL     1     -10.014   0.495 -15.186  0.00  0.00    +0.111 A 
ENDBRANCH   1  15
BRANCH   4  18
ATOM     18  C   UNL     1     -13.307   6.528 -18.571  0.00  0.00    +0.130 C 
ATOM     19  C   UNL     1     -11.922   7.210 -19.021  0.00  0.00    +0.045 C 
ATOM     20  C   UNL     1     -13.939   7.429 -17.393  0.00  0.00    +0.045 C 
ENDBRANCH   4  18
BRANCH   9  21
ATOM     21  C   UNL     1     -14.815   2.658 -21.694  0.00  0.00    +0.103 C 
ATOM     22  C   UNL     1     -13.846   2.332 -22.927  0.00  0.00    +0.024 C 
ENDBRANCH   9  21
TORSDOF 3
ENDMDL
MODEL 2
REMARK VINA RESULT:      -6.4      2.413      3.645
REMARK  Name = min_compound924.pdb
REMARK  6 active torsions:
REMARK  status: ('A' for Active; 'I' for Inactive)
REMARK    1  A    between atoms: _6  and  _7
REMARK    2  A    between atoms: _13  and  _18
REMARK    3  A    between atoms: _14  and  _15
REMARK    4  A    between atoms: _15  and  _16
REMARK    5  A    between atoms: _15  and  _17
REMARK    6  A    between atoms: _18  and  _19
REMARK                            x       y       z     vdW  Elec       q    Type
REMARK                         _______ _______ _______ _____ _____    ______ ____
ROOT
ATOM      1  C   UNL     1     -12.129   2.639 -16.830  0.00  0.00    +0.292 C 
ATOM      2  N   UNL     1     -12.920   2.805 -15.762  0.00  0.00    -0.042 NA
ATOM      3  C   UNL     1     -13.772   3.815 -15.803  0.00  0.00    +0.380 C 
ATOM      4  N   UNL     1     -14.648   3.808 -14.591  0.00  0.00    -0.236 N 
ATOM      5  H   UNL     1     -14.006   3.519 -13.857  0.00  0.00    +0.245 HD
ATOM      6  N   UNL     1     -13.788   4.682 -16.892  0.00  0.00    -0.167 N 
ATOM      7  H   UNL     1     -14.427   5.429 -16.928  0.00  0.00    +0.255 HD
ATOM      8  C   UNL     1     -12.883   4.474 -17.927  0.00  0.00    +0.305 C 
ATOM      9  N   UNL     1     -12.713   5.243 -19.195  0.00  0.00    -0.294 N 
ATOM     10  H   UNL     1     -11.707   5.240 -19.337  0.00  0.00    +0.151 HD
ATOM     11  N   UNL     1     -12.034   3.462 -17.883  0.00  0.00    -0.324 NA
ENDROOT
BRANCH   1  15
ATOM     12  N   UNL     1      -9.806  -0.992 -16.916  0.00  0.00    -0.263 NA
ATOM     13  C   UNL     1      -9.306   0.181 -17.352  0.00  0.00    +0.111 A 
ATOM     14  C   UNL     1     -10.020   1.369 -17.362  0.00  0.00    +0.034 A 
ATOM     15  C   UNL     1     -11.344   1.386 -16.892  0.00  0.00    +0.052 A 
ATOM     16  C   UNL     1     -11.867   0.166 -16.436  0.00  0.00    +0.034 A 
ATOM     17  C   UNL     1     -11.075  -0.972 -16.463  0.00  0.00    +0.111 A 
ENDBRANCH   1  15
BRANCH   4  18
ATOM     18  C   UNL     1     -15.325   5.140 -14.460  0.00  0.00    +0.130 C 
ATOM     19  C   UNL     1     -15.207   5.196 -12.857  0.00  0.00    +0.045 C 
ATOM     20  C   UNL     1     -16.795   4.589 -14.827  0.00  0.00    +0.045 C 
ENDBRANCH   4  18
BRANCH   9  21
ATOM     21  C   UNL     1     -13.390   6.576 -19.064  0.00  0.00    +0.103 C 
ATOM     22  C   UNL     1     -12.070   7.344 -18.582  0.00  0.00    +0.024 C 
ENDBRANCH   9  21
TORSDOF 3
ENDMDL
MODEL 3
REMARK VINA RESULT:      -6.3      3.317      5.526
REMARK  Name = min_compound924.pdb
REMARK  6 active torsions:
REMARK  status: ('A' for Active; 'I' for Inactive)
REMARK    1  A    between atoms: _6  and  _7
REMARK    2  A    between atoms: _13  and  _18
REMARK    3  A    between atoms: _14  and  _15
REMARK    4  A    between atoms: _15  and  _16
REMARK    5  A    between atoms: _15  and  _17
REMARK    6  A    between atoms: _18  and  _19
REMARK                            x       y       z     vdW  Elec       q    Type
REMARK                         _______ _______ _______ _____ _____    ______ ____
ROOT
ATOM      1  C   UNL     1     -14.031   2.776 -16.254  0.00  0.00    +0.292 C 
ATOM      2  N   UNL     1     -14.496   2.943 -17.498  0.00  0.00    -0.042 NA
ATOM      3  C   UNL     1     -13.761   2.450 -18.480  0.00  0.00    +0.380 C 
ATOM      4  N   UNL     1     -14.457   2.626 -19.792  0.00  0.00    -0.236 N 
ATOM      5  H   UNL     1     -14.890   3.541 -19.691  0.00  0.00    +0.245 HD
ATOM      6  N   UNL     1     -12.539   1.840 -18.210  0.00  0.00    -0.167 N 
ATOM      7  H   UNL     1     -11.995   1.465 -18.939  0.00  0.00    +0.255 HD
ATOM      8  C   UNL     1     -12.101   1.771 -16.892  0.00  0.00    +0.305 C 
ATOM      9  N   UNL     1     -10.853   1.161 -16.348  0.00  0.00    -0.294 N 
ATOM     10  H   UNL     1     -10.590   1.795 -15.599  0.00  0.00    +0.151 HD
ATOM     11  N   UNL     1     -12.840   2.263 -15.913  0.00  0.00    -0.324 NA
ENDROOT
BRANCH   1  15
ATOM     12  N   UNL     1     -16.659   3.696 -12.962  0.00  0.00    -0.263 NA
ATOM     13  C   UNL     1     -16.903   2.669 -13.799  0.00  0.00    +0.111 A 
ATOM     14  C   UNL     1     -16.098   2.346 -14.881  0.00  0.00    +0.034 A 
ATOM     15  C   UNL     1     -14.952   3.113 -15.145  0.00  0.00    +0.052 A 
ATOM     16  C   UNL     1     -14.694   4.184 -14.274  0.00  0.00    +0.034 A 
ATOM     17  C   UNL     1     -15.557   4.429 -13.217  0.00  0.00    +0.111 A 
ENDBRANCH   1  15
BRANCH   4  18
ATOM     18  C   UNL     1     -13.473   2.425 -20.907  0.00  0.00    +0.130 C 
ATOM     19  C   UNL     1     -13.597   3.926 -21.471  0.00  0.00    +0.045 C 
ATOM     20  C   UNL     1     -14.446   1.487 -21.786  0.00  0.00    +0.045 C 
ENDBRANCH   4  18
BRANCH   9  21
ATOM     21  C   UNL     1      -9.869   0.960 -17.462  0.00  0.00    +0.103 C 
ATOM     22  C   UNL     1      -9.856  -0.637 -17.336  0.00  0.00    +0.024 C 
ENDBRANCH   9  21
TORSDOF 3
ENDMDL
MODEL 4
REMARK VINA RESULT:      -6.1      2.796      3.570
REMARK  Name = min_compound924.pdb
REMARK  6 active torsions:
REMARK  status: ('A' for Active; 'I' for Inactive)
REMARK    1  A    between atoms: _6  and  _7
REMARK    2  A    between atoms: _13  and  _18
REMARK    3  A    between atoms: _14  and  _15
REMARK    4  A    between atoms: _15  and  _16
REMARK    5  A    between atoms: _15  and  _17
REMARK    6  A    between atoms: _18  and  _19
REMARK                            x       y       z     vdW  Elec       q    Type
REMARK                         _______ _______ _______ _____ _____    ______ ____
ROOT
ATOM      1  C   UNL     1     -12.956   2.006 -17.029  0.00  0.00    +0.292 C 
ATOM      2  N   UNL     1     -12.802   3.162 -17.686  0.00  0.00    -0.042 NA
ATOM      3  C   UNL     1     -13.742   4.076 -17.511  0.00  0.00    +0.380 C 
ATOM      4  N   UNL     1     -13.380   5.339 -18.225  0.00  0.00    -0.236 N 
ATOM      5  H   UNL     1     -12.951   4.994 -19.079  0.00  0.00    +0.245 HD
ATOM      6  N   UNL     1     -14.854   3.803 -16.720  0.00  0.00    -0.167 N 
ATOM      7  H   UNL     1     -15.549   4.485 -16.581  0.00  0.00    +0.255 HD
ATOM      8  C   UNL     1     -14.965   2.549 -16.130  0.00  0.00    +0.305 C 
ATOM      9  N   UNL     1     -16.038   2.023 -15.235  0.00  0.00    -0.294 N 
ATOM     10  H   UNL     1     -16.126   1.052 -15.522  0.00  0.00    +0.151 HD
ATOM     11  N   UNL     1     -14.023   1.639 -16.306  0.00  0.00    -0.324 NA
ENDROOT
BRANCH   1  15
ATOM     12  N   UNL     1      -9.572  -0.665 -16.950  0.00  0.00    -0.263 NA
ATOM     13  C   UNL     1      -9.483   0.579 -17.460  0.00  0.00    +0.111 A 
ATOM     14  C   UNL     1     -10.547   1.466 -17.525  0.00  0.00    +0.034 A 
ATOM     15  C   UNL     1     -11.804   1.076 -17.034  0.00  0.00    +0.052 A 
ATOM     16  C   UNL     1     -11.900  -0.219 -16.500  0.00  0.00    +0.034 A 
ATOM     17  C   UNL     1     -10.779  -1.035 -16.478  0.00  0.00    +0.111 A 
ENDBRANCH   1  15
BRANCH   4  18
ATOM     18  C   UNL     1     -14.597   6.209 -18.342  0.00  0.00    +0.130 C 
ATOM     19  C   UNL     1     -14.293   6.668 -19.853  0.00  0.00    +0.045 C 
ATOM     20  C   UNL     1     -14.044   7.360 -17.358  0.00  0.00    +0.045 C 
ENDBRANCH   4  18
BRANCH   9  21
ATOM     21  C   UNL     1     -17.255   2.892 -15.352  0.00  0.00    +0.103 C 
ATOM     22  C   UNL     1     -17.501   2.983 -13.772  0.00  0.00    +0.024 C 
ENDBRANCH   9  21
TORSDOF 3
ENDMDL
MODEL 5
REMARK VINA RESULT:      -6.1      3.541      5.192
REMARK  Name = min_compound924.pdb
REMARK  6 active torsions:
REMARK  status: ('A' for Active; 'I' for Inactive)
REMARK    1  A    between atoms: _6  and  _7
REMARK    2  A    between atoms: _13  and  _18
REMARK    3  A    between atoms: _14  and  _15
REMARK    4  A    between atoms: _15  and  _16
REMARK    5  A    between atoms: _15  and  _17
REMARK    6  A    between atoms: _18  and  _19
REMARK                            x       y       z     vdW  Elec       q    Type
REMARK                         _______ _______ _______ _____ _____    ______ ____
ROOT
ATOM      1  C   UNL     1     -13.865   3.679 -15.573  0.00  0.00    +0.292 C 
ATOM      2  N   UNL     1     -13.960   4.639 -16.503  0.00  0.00    -0.042 NA
ATOM      3  C   UNL     1     -13.125   4.562 -17.526  0.00  0.00    +0.380 C 
ATOM      4  N   UNL     1     -13.419   5.638 -18.521  0.00  0.00    -0.236 N 
ATOM      5  H   UNL     1     -13.658   6.428 -17.927  0.00  0.00    +0.245 HD
ATOM      6  N   UNL     1     -12.169   3.553 -17.581  0.00  0.00    -0.167 N 
ATOM      7  H   UNL     1     -11.553   3.488 -18.347  0.00  0.00    +0.255 HD
ATOM      8  C   UNL     1     -12.098   2.637 -16.537  0.00  0.00    +0.305 C 
ATOM      9  N   UNL     1     -11.184   1.469 -16.372  0.00  0.00    -0.294 N 
ATOM     10  H   UNL     1     -10.986   1.466 -15.375  0.00  0.00    +0.151 HD
ATOM     11  N   UNL     1     -12.935   2.717 -15.517  0.00  0.00    -0.324 NA
ENDROOT
BRANCH   1  15
ATOM     12  N   UNL     1     -16.940   3.452 -12.560  0.00  0.00    -0.263 NA
ATOM     13  C   UNL     1     -16.969   2.680 -13.663  0.00  0.00    +0.111 A 
ATOM     14  C   UNL     1     -16.015   2.731 -14.667  0.00  0.00    +0.034 A 
ATOM     15  C   UNL     1     -14.939   3.627 -14.556  0.00  0.00    +0.052 A 
ATOM     16  C   UNL     1     -14.905   4.432 -13.407  0.00  0.00    +0.034 A 
ATOM     17  C   UNL     1     -15.905   4.310 -12.454  0.00  0.00    +0.111 A 
ENDBRANCH   1  15
BRANCH   4  18
ATOM     18  C   UNL     1     -12.255   5.780 -19.457  0.00  0.00    +0.130 C 
ATOM     19  C   UNL     1     -11.804   7.218 -18.898  0.00  0.00    +0.045 C 
ATOM     20  C   UNL     1     -13.158   6.024 -20.770  0.00  0.00    +0.045 C 
ENDBRANCH   4  18
BRANCH   9  21
ATOM     21  C   UNL     1     -10.020   1.610 -17.308  0.00  0.00    +0.103 C 
ATOM     22  C   UNL     1      -9.651   0.052 -17.291  0.00  0.00    +0.024 C 
ENDBRANCH   9  21
TORSDOF 3
ENDMDL
MODEL 6
REMARK VINA RESULT:      -6.1      1.100      3.904
REMARK  Name = min_compound924.pdb
REMARK  6 active torsions:
REMARK  status: ('A' for Active; 'I' for Inactive)
REMARK    1  A    between atoms: _6  and  _7
REMARK    2  A    between atoms: _13  and  _18
REMARK    3  A    between atoms: _14  and  _15
REMARK    4  A    between atoms: _15  and  _16
REMARK    5  A    between atoms: _15  and  _17
REMARK    6  A    between atoms: _18  and  _19
REMARK                            x       y       z     vdW  Elec       q    Type
REMARK                         _______ _______ _______ _____ _____    ______ ____
ROOT
ATOM      1  C   UNL     1     -12.409   1.959 -18.087  0.00  0.00    +0.292 C 
ATOM      2  N   UNL     1     -12.870   1.705 -19.318  0.00  0.00    -0.042 NA
ATOM      3  C   UNL     1     -13.516   2.685 -19.927  0.00  0.00    +0.380 C 
ATOM      4  N   UNL     1     -13.878   2.285 -21.321  0.00  0.00    -0.236 N 
ATOM      5  H   UNL     1     -14.124   1.304 -21.212  0.00  0.00    +0.245 HD
ATOM      6  N   UNL     1     -13.740   3.894 -19.275  0.00  0.00    -0.167 N 
ATOM      7  H   UNL     1     -14.213   4.627 -19.730  0.00  0.00    +0.255 HD
ATOM      8  C   UNL     1     -13.285   4.047 -17.970  0.00  0.00    +0.305 C 
ATOM      9  N   UNL     1     -13.385   5.236 -17.073  0.00  0.00    -0.294 N 
ATOM     10  H   UNL     1     -13.546   4.825 -16.158  0.00  0.00    +0.151 HD
ATOM     11  N   UNL     1     -12.638   3.065 -17.366  0.00  0.00    -0.324 NA
ENDROOT
BRANCH   1  15
ATOM     12  N   UNL     1      -9.730  -0.896 -16.283  0.00  0.00    -0.263 NA
ATOM     13  C   UNL     1      -9.275   0.136 -17.019  0.00  0.00    +0.111 A 
ATOM     14  C   UNL     1     -10.097   1.068 -17.634  0.00  0.00    +0.034 A 
ATOM     15  C   UNL     1     -11.491   0.959 -17.497  0.00  0.00    +0.052 A 
ATOM     16  C   UNL     1     -11.968  -0.116 -16.730  0.00  0.00    +0.034 A 
ATOM     17  C   UNL     1     -11.067  -0.997 -16.152  0.00  0.00    +0.111 A 
ENDBRANCH   1  15
BRANCH   4  18
ATOM     18  C   UNL     1     -14.920   3.224 -21.853  0.00  0.00    +0.130 C 
ATOM     19  C   UNL     1     -15.748   2.085 -22.629  0.00  0.00    +0.045 C 
ATOM     20  C   UNL     1     -13.941   3.933 -22.919  0.00  0.00    +0.045 C 
ENDBRANCH   4  18
BRANCH   9  21
ATOM     21  C   UNL     1     -14.426   6.175 -17.605  0.00  0.00    +0.103 C 
ATOM     22  C   UNL     1     -13.388   7.352 -17.924  0.00  0.00    +0.024 C 
ENDBRANCH   9  21
TORSDOF 3
ENDMDL
MODEL 7
REMARK VINA RESULT:      -6.0      1.711      2.166
REMARK  Name = min_compound924.pdb
REMARK  6 active torsions:
REMARK  status: ('A' for Active; 'I' for Inactive)
REMARK    1  A    between atoms: _6  and  _7
REMARK    2  A    between atoms: _13  and  _18
REMARK    3  A    between atoms: _14  and  _15
REMARK    4  A    between atoms: _15  and  _16
REMARK    5  A    between atoms: _15  and  _17
REMARK    6  A    between atoms: _18  and  _19
REMARK                            x       y       z     vdW  Elec       q    Type
REMARK                         _______ _______ _______ _____ _____    ______ ____
ROOT
ATOM      1  C   UNL     1     -12.668   1.981 -18.228  0.00  0.00    +0.292 C 
ATOM      2  N   UNL     1     -13.495   2.864 -17.654  0.00  0.00    -0.042 NA
ATOM      3  C   UNL     1     -14.522   3.275 -18.377  0.00  0.00    +0.380 C 
ATOM      4  N   UNL     1     -15.403   4.174 -17.569  0.00  0.00    -0.236 N 
ATOM      5  H   UNL     1     -14.731   4.705 -17.020  0.00  0.00    +0.245 HD
ATOM      6  N   UNL     1     -14.682   2.839 -19.689  0.00  0.00    -0.167 N 
ATOM      7  H   UNL     1     -15.452   3.137 -20.225  0.00  0.00    +0.255 HD
ATOM      8  C   UNL     1     -13.736   1.974 -20.228  0.00  0.00    +0.305 C 
ATOM      9  N   UNL     1     -13.693   1.357 -21.586  0.00  0.00    -0.294 N 
ATOM     10  H   UNL     1     -12.702   1.358 -21.812  0.00  0.00    +0.151 HD
ATOM     11  N   UNL     1     -12.712   1.563 -19.501  0.00  0.00    -0.324 NA
ENDROOT
BRANCH   1  15
ATOM     12  N   UNL     1      -9.806   0.082 -15.623  0.00  0.00    -0.263 NA
ATOM     13  C   UNL     1     -10.300   1.307 -15.360  0.00  0.00    +0.111 A 
ATOM     14  C   UNL     1     -11.207   1.965 -16.177  0.00  0.00    +0.034 A 
ATOM     15  C   UNL     1     -11.659   1.344 -17.353  0.00  0.00    +0.052 A 
ATOM     16  C   UNL     1     -11.146   0.066 -17.629  0.00  0.00    +0.034 A 
ATOM     17  C   UNL     1     -10.243  -0.513 -16.751  0.00  0.00    +0.111 A 
ENDBRANCH   1  15
BRANCH   4  18
ATOM     18  C   UNL     1     -16.322   4.925 -18.487  0.00  0.00    +0.130 C 
ATOM     19  C   UNL     1     -15.403   6.242 -18.554  0.00  0.00    +0.045 C 
ATOM     20  C   UNL     1     -17.460   5.176 -17.373  0.00  0.00    +0.045 C 
ENDBRANCH   4  18
BRANCH   9  21
ATOM     21  C   UNL     1     -14.612   2.107 -22.504  0.00  0.00    +0.103 C 
ATOM     22  C   UNL     1     -13.443   2.963 -23.186  0.00  0.00    +0.024 C 
ENDBRANCH   9  21
TORSDOF 3
ENDMDL
MODEL 8
REMARK VINA RESULT:      -5.9      2.382      5.756
REMARK  Name = min_compound924.pdb
REMARK  6 active torsions:
REMARK  status: ('A' for Active; 'I' for Inactive)
REMARK    1  A    between atoms: _6  and  _7
REMARK    2  A    between atoms: _13  and  _18
REMARK    3  A    between atoms: _14  and  _15
REMARK    4  A    between atoms: _15  and  _16
REMARK    5  A    between atoms: _15  and  _17
REMARK    6  A    between atoms: _18  and  _19
REMARK                            x       y       z     vdW  Elec       q    Type
REMARK                         _______ _______ _______ _____ _____    ______ ____
ROOT
ATOM      1  C   UNL     1     -13.602   2.367 -19.168  0.00  0.00    +0.292 C 
ATOM      2  N   UNL     1     -14.471   2.937 -18.322  0.00  0.00    -0.042 NA
ATOM      3  C   UNL     1     -14.119   2.980 -17.048  0.00  0.00    +0.380 C 
ATOM      4  N   UNL     1     -15.139   3.730 -16.251  0.00  0.00    -0.236 N 
ATOM      5  H   UNL     1     -16.013   3.439 -16.683  0.00  0.00    +0.245 HD
ATOM      6  N   UNL     1     -12.925   2.406 -16.625  0.00  0.00    -0.167 N 
ATOM      7  H   UNL     1     -12.658   2.445 -15.679  0.00  0.00    +0.255 HD
ATOM      8  C   UNL     1     -12.115   1.774 -17.563  0.00  0.00    +0.305 C 
ATOM      9  N   UNL     1     -10.796   1.105 -17.367  0.00  0.00    -0.294 N 
ATOM     10  H   UNL     1     -10.840   0.311 -17.998  0.00  0.00    +0.151 HD
ATOM     11  N   UNL     1     -12.469   1.734 -18.836  0.00  0.00    -0.324 NA
ENDROOT
BRANCH   1  15
ATOM     12  N   UNL     1     -14.474   2.737 -23.374  0.00  0.00    -0.263 NA
ATOM     13  C   UNL     1     -13.482   1.947 -22.922  0.00  0.00    +0.111 A 
ATOM     14  C   UNL     1     -13.152   1.810 -21.583  0.00  0.00    +0.034 A 
ATOM     15  C   UNL     1     -13.879   2.522 -20.614  0.00  0.00    +0.052 A 
ATOM     16  C   UNL     1     -14.915   3.346 -21.081  0.00  0.00    +0.034 A 
ATOM     17  C   UNL     1     -15.172   3.417 -22.442  0.00  0.00    +0.111 A 
ENDBRANCH   1  15
BRANCH   4  18
ATOM     18  C   UNL     1     -14.936   3.445 -14.793  0.00  0.00    +0.130 C 
ATOM     19  C   UNL     1     -16.189   2.443 -14.674  0.00  0.00    +0.045 C 
ATOM     20  C   UNL     1     -15.422   4.900 -14.295  0.00  0.00    +0.045 C 
ENDBRANCH   4  18
BRANCH   9  21
ATOM     21  C   UNL     1     -10.593   0.821 -15.908  0.00  0.00    +0.103 C 
ATOM     22  C   UNL     1      -9.689  -0.478 -16.155  0.00  0.00    +0.024 C 
ENDBRANCH   9  21
TORSDOF 3
ENDMDL
MODEL 9
REMARK VINA RESULT:      -5.9      2.979      4.278
REMARK  Name = min_compound924.pdb
REMARK  6 active torsions:
REMARK  status: ('A' for Active; 'I' for Inactive)
REMARK    1  A    between atoms: _6  and  _7
REMARK    2  A    between atoms: _13  and  _18
REMARK    3  A    between atoms: _14  and  _15
REMARK    4  A    between atoms: _15  and  _16
REMARK    5  A    between atoms: _15  and  _17
REMARK    6  A    between atoms: _18  and  _19
REMARK                            x       y       z     vdW  Elec       q    Type
REMARK                         _______ _______ _______ _____ _____    ______ ____
ROOT
ATOM      1  C   UNL     1     -12.741   3.237 -16.195  0.00  0.00    +0.292 C 
ATOM      2  N   UNL     1     -13.633   3.159 -15.199  0.00  0.00    -0.042 NA
ATOM      3  C   UNL     1     -14.535   4.123 -15.131  0.00  0.00    +0.380 C 
ATOM      4  N   UNL     1     -15.515   3.844 -14.036  0.00  0.00    -0.236 N 
ATOM      5  H   UNL     1     -14.926   3.443 -13.310  0.00  0.00    +0.245 HD
ATOM      6  N   UNL     1     -14.502   5.185 -16.029  0.00  0.00    -0.167 N 
ATOM      7  H   UNL     1     -15.179   5.899 -15.985  0.00  0.00    +0.255 HD
ATOM      8  C   UNL     1     -13.498   5.221 -16.990  0.00  0.00    +0.305 C 
ATOM      9  N   UNL     1     -13.259   6.230 -18.063  0.00  0.00    -0.294 N 
ATOM     10  H   UNL     1     -12.245   6.294 -18.102  0.00  0.00    +0.151 HD
ATOM     11  N   UNL     1     -12.599   4.254 -17.056  0.00  0.00    -0.324 NA
ENDROOT
BRANCH   1  15
ATOM     12  N   UNL     1     -10.175  -0.155 -16.899  0.00  0.00    -0.263 NA
ATOM     13  C   UNL     1     -11.176   0.163 -17.741  0.00  0.00    +0.111 A 
ATOM     14  C   UNL     1     -12.038   1.232 -17.547  0.00  0.00    +0.034 A 
ATOM     15  C   UNL     1     -11.882   2.052 -16.417  0.00  0.00    +0.052 A 
ATOM     16  C   UNL     1     -10.839   1.723 -15.538  0.00  0.00    +0.034 A 
ATOM     17  C   UNL     1     -10.026   0.634 -15.816  0.00  0.00    +0.111 A 
ENDBRANCH   1  15
BRANCH   4  18
ATOM     18  C   UNL     1     -16.276   5.097 -13.720  0.00  0.00    +0.130 C 
ATOM     19  C   UNL     1     -15.368   5.494 -12.454  0.00  0.00    +0.045 C 
ATOM     20  C   UNL     1     -17.584   4.333 -13.168  0.00  0.00    +0.045 C 
ENDBRANCH   4  18
BRANCH   9  21
ATOM     21  C   UNL     1     -14.020   7.483 -17.748  0.00  0.00    +0.103 C 
ATOM     22  C   UNL     1     -14.995   7.363 -19.013  0.00  0.00    +0.024 C 
ENDBRANCH   9  21
TORSDOF 3
ENDMDL
