MODEL 1
REMARK VINA RESULT:      -7.6      0.000      0.000
REMARK  Name = min_compound996.pdb
REMARK  5 active torsions:
REMARK  status: ('A' for Active; 'I' for Inactive)
REMARK    1  A    between atoms: _2  and  _9
REMARK    2  A    between atoms: _2  and  _19
REMARK    3  A    between atoms: _10  and  _19
REMARK    4  A    between atoms: _19  and  _20
REMARK    5  A    between atoms: _19  and  _21
REMARK                            x       y       z     vdW  Elec       q    Type
REMARK                         _______ _______ _______ _____ _____    ______ ____
ROOT
ATOM      1  S   UNL     1     -14.701   2.727 -16.445  0.00  0.00    -0.013 S 
ENDROOT
BRANCH   1   2
ATOM      2  C   UNL     1     -12.943   2.849 -16.269  0.00  0.00    +0.124 A 
ATOM      3  C   UNL     1     -12.182   1.682 -16.317  0.00  0.00    +0.097 A 
ATOM      4  C   UNL     1     -10.784   1.830 -16.162  0.00  0.00    +0.002 A 
ATOM      5  C   UNL     1     -10.207   3.099 -15.969  0.00  0.00    +0.010 A 
ATOM      6  C   UNL     1     -11.001   4.241 -15.926  0.00  0.00    +0.003 A 
ATOM      7  C   UNL     1      -9.979   0.685 -16.209  0.00  0.00    +0.011 A 
ATOM      8  C   UNL     1     -10.553  -0.564 -16.406  0.00  0.00    +0.020 A 
ATOM      9  C   UNL     1     -11.922  -0.625 -16.549  0.00  0.00    +0.111 A 
ATOM     10  N   UNL     1     -12.728   0.459 -16.503  0.00  0.00    -0.253 NA
ATOM     11  C   UNL     1     -12.375   4.120 -16.076  0.00  0.00    +0.030 A 
ENDBRANCH   1   2
BRANCH   1  12
ATOM     12  O   UNL     1     -15.100   1.483 -15.812  0.00  0.00    -0.263 OA
ATOM     13  H   UNL     1     -14.920   0.744 -16.412  0.00  0.00    +0.244 HD
ENDBRANCH   1  12
BRANCH   1  14
ATOM     14  O   UNL     1     -14.990   2.945 -17.855  0.00  0.00    -0.263 OA
ATOM     15  H   UNL     1     -14.300   2.527 -18.394  0.00  0.00    +0.244 HD
ENDBRANCH   1  14
BRANCH   1  16
ATOM     16  O   UNL     1     -15.301   4.009 -15.629  0.00  0.00    -0.363 OA
BRANCH  16  21
ATOM     17 CL   UNL     1     -16.937   3.588 -10.008  0.00  0.00    -0.084 Cl
ATOM     18  C   UNL     1     -16.473   3.696 -11.662  0.00  0.00    +0.041 A 
ATOM     19  C   UNL     1     -17.219   3.033 -12.636  0.00  0.00    +0.023 A 
ATOM     20  C   UNL     1     -16.843   3.119 -13.979  0.00  0.00    +0.050 A 
ATOM     21  C   UNL     1     -15.715   3.859 -14.333  0.00  0.00    +0.155 A 
ATOM     22  C   UNL     1     -14.983   4.540 -13.359  0.00  0.00    +0.050 A 
ATOM     23  C   UNL     1     -15.357   4.453 -12.018  0.00  0.00    +0.023 A 
ENDBRANCH  16  21
ENDBRANCH   1  16
TORSDOF 5
ENDMDL
MODEL 2
REMARK VINA RESULT:      -7.4      1.918      2.444
REMARK  Name = min_compound996.pdb
REMARK  5 active torsions:
REMARK  status: ('A' for Active; 'I' for Inactive)
REMARK    1  A    between atoms: _2  and  _9
REMARK    2  A    between atoms: _2  and  _19
REMARK    3  A    between atoms: _10  and  _19
REMARK    4  A    between atoms: _19  and  _20
REMARK    5  A    between atoms: _19  and  _21
REMARK                            x       y       z     vdW  Elec       q    Type
REMARK                         _______ _______ _______ _____ _____    ______ ____
ROOT
ATOM      1  S   UNL     1     -13.563   3.242 -18.888  0.00  0.00    -0.013 S 
ENDROOT
BRANCH   1   2
ATOM      2  C   UNL     1     -12.226   3.318 -17.729  0.00  0.00    +0.124 A 
ATOM      3  C   UNL     1     -11.749   2.131 -17.176  0.00  0.00    +0.097 A 
ATOM      4  C   UNL     1     -10.687   2.245 -16.249  0.00  0.00    +0.002 A 
ATOM      5  C   UNL     1     -10.151   3.502 -15.913  0.00  0.00    +0.010 A 
ATOM      6  C   UNL     1     -10.655   4.665 -16.486  0.00  0.00    +0.003 A 
ATOM      7  C   UNL     1     -10.172   1.077 -15.671  0.00  0.00    +0.011 A 
ATOM      8  C   UNL     1     -10.700  -0.160 -16.012  0.00  0.00    +0.020 A 
ATOM      9  C   UNL     1     -11.733  -0.188 -16.923  0.00  0.00    +0.111 A 
ATOM     10  N   UNL     1     -12.257   0.919 -17.494  0.00  0.00    -0.253 NA
ATOM     11  C   UNL     1     -11.697   4.578 -17.397  0.00  0.00    +0.030 A 
ENDBRANCH   1   2
BRANCH   1  12
ATOM     12  O   UNL     1     -13.321   2.085 -19.730  0.00  0.00    -0.263 OA
ATOM     13  H   UNL     1     -14.018   1.428 -19.584  0.00  0.00    +0.244 HD
ENDBRANCH   1  12
BRANCH   1  14
ATOM     14  O   UNL     1     -13.663   4.564 -19.488  0.00  0.00    -0.263 OA
ATOM     15  H   UNL     1     -14.338   5.081 -19.021  0.00  0.00    +0.244 HD
ENDBRANCH   1  14
BRANCH   1  16
ATOM     16  O   UNL     1     -14.903   3.026 -17.979  0.00  0.00    -0.363 OA
BRANCH  16  21
ATOM     17 CL   UNL     1     -15.561   5.968 -12.944  0.00  0.00    -0.084 Cl
ATOM     18  C   UNL     1     -15.361   5.088 -14.409  0.00  0.00    +0.041 A 
ATOM     19  C   UNL     1     -15.007   3.739 -14.364  0.00  0.00    +0.023 A 
ATOM     20  C   UNL     1     -14.843   3.022 -15.552  0.00  0.00    +0.050 A 
ATOM     21  C   UNL     1     -15.022   3.668 -16.776  0.00  0.00    +0.155 A 
ATOM     22  C   UNL     1     -15.397   5.011 -16.818  0.00  0.00    +0.050 A 
ATOM     23  C   UNL     1     -15.559   5.727 -15.631  0.00  0.00    +0.023 A 
ENDBRANCH  16  21
ENDBRANCH   1  16
TORSDOF 5
ENDMDL
MODEL 3
REMARK VINA RESULT:      -7.3      4.268      6.240
REMARK  Name = min_compound996.pdb
REMARK  5 active torsions:
REMARK  status: ('A' for Active; 'I' for Inactive)
REMARK    1  A    between atoms: _2  and  _9
REMARK    2  A    between atoms: _2  and  _19
REMARK    3  A    between atoms: _10  and  _19
REMARK    4  A    between atoms: _19  and  _20
REMARK    5  A    between atoms: _19  and  _21
REMARK                            x       y       z     vdW  Elec       q    Type
REMARK                         _______ _______ _______ _____ _____    ______ ____
ROOT
ATOM      1  S   UNL     1     -13.791   3.070 -18.683  0.00  0.00    -0.013 S 
ENDROOT
BRANCH   1   2
ATOM      2  C   UNL     1     -13.046   4.671 -18.818  0.00  0.00    +0.124 A 
ATOM      3  C   UNL     1     -12.849   5.215 -20.087  0.00  0.00    +0.097 A 
ATOM      4  C   UNL     1     -12.242   6.491 -20.143  0.00  0.00    +0.002 A 
ATOM      5  C   UNL     1     -11.862   7.164 -18.967  0.00  0.00    +0.010 A 
ATOM      6  C   UNL     1     -12.074   6.587 -17.718  0.00  0.00    +0.003 A 
ATOM      7  C   UNL     1     -12.030   7.079 -21.396  0.00  0.00    +0.011 A 
ATOM      8  C   UNL     1     -12.414   6.413 -22.552  0.00  0.00    +0.020 A 
ATOM      9  C   UNL     1     -12.999   5.174 -22.414  0.00  0.00    +0.111 A 
ATOM     10  N   UNL     1     -13.213   4.575 -21.222  0.00  0.00    -0.253 NA
ATOM     11  C   UNL     1     -12.668   5.336 -17.639  0.00  0.00    +0.030 A 
ENDBRANCH   1   2
BRANCH   1  12
ATOM     12  O   UNL     1     -13.050   2.189 -19.568  0.00  0.00    -0.263 OA
ATOM     13  H   UNL     1     -12.351   2.691 -20.012  0.00  0.00    +0.244 HD
ENDBRANCH   1  12
BRANCH   1  14
ATOM     14  O   UNL     1     -15.219   3.262 -18.886  0.00  0.00    -0.263 OA
ATOM     15  H   UNL     1     -15.672   2.406 -18.828  0.00  0.00    +0.244 HD
ENDBRANCH   1  14
BRANCH   1  16
ATOM     16  O   UNL     1     -13.583   2.633 -17.123  0.00  0.00    -0.363 OA
BRANCH  16  21
ATOM     17 CL   UNL     1      -9.322  -1.173 -15.780  0.00  0.00    -0.084 Cl
ATOM     18  C   UNL     1     -10.558  -0.040 -16.169  0.00  0.00    +0.041 A 
ATOM     19  C   UNL     1     -10.268   1.324 -16.184  0.00  0.00    +0.023 A 
ATOM     20  C   UNL     1     -11.270   2.246 -16.498  0.00  0.00    +0.050 A 
ATOM     21  C   UNL     1     -12.558   1.792 -16.782  0.00  0.00    +0.155 A 
ATOM     22  C   UNL     1     -12.841   0.426 -16.788  0.00  0.00    +0.050 A 
ATOM     23  C   UNL     1     -11.840  -0.494 -16.472  0.00  0.00    +0.023 A 
ENDBRANCH  16  21
ENDBRANCH   1  16
TORSDOF 5
ENDMDL
MODEL 4
REMARK VINA RESULT:      -7.0      3.717      6.611
REMARK  Name = min_compound996.pdb
REMARK  5 active torsions:
REMARK  status: ('A' for Active; 'I' for Inactive)
REMARK    1  A    between atoms: _2  and  _9
REMARK    2  A    between atoms: _2  and  _19
REMARK    3  A    between atoms: _10  and  _19
REMARK    4  A    between atoms: _19  and  _20
REMARK    5  A    between atoms: _19  and  _21
REMARK                            x       y       z     vdW  Elec       q    Type
REMARK                         _______ _______ _______ _____ _____    ______ ____
ROOT
ATOM      1  S   UNL     1     -14.192   3.592 -16.448  0.00  0.00    -0.013 S 
ENDROOT
BRANCH   1   2
ATOM      2  C   UNL     1     -14.171   5.313 -16.864  0.00  0.00    +0.124 A 
ATOM      3  C   UNL     1     -14.829   6.213 -16.028  0.00  0.00    +0.097 A 
ATOM      4  C   UNL     1     -14.791   7.575 -16.408  0.00  0.00    +0.002 A 
ATOM      5  C   UNL     1     -14.119   7.983 -17.575  0.00  0.00    +0.010 A 
ATOM      6  C   UNL     1     -13.474   7.053 -18.385  0.00  0.00    +0.003 A 
ATOM      7  C   UNL     1     -15.435   8.517 -15.595  0.00  0.00    +0.011 A 
ATOM      8  C   UNL     1     -16.090   8.109 -14.441  0.00  0.00    +0.020 A 
ATOM      9  C   UNL     1     -16.081   6.766 -14.139  0.00  0.00    +0.111 A 
ATOM     10  N   UNL     1     -15.476   5.830 -14.904  0.00  0.00    -0.253 NA
ATOM     11  C   UNL     1     -13.498   5.712 -18.032  0.00  0.00    +0.030 A 
ENDBRANCH   1   2
BRANCH   1  12
ATOM     12  O   UNL     1     -15.574   3.157 -16.539  0.00  0.00    -0.263 OA
ATOM     13  H   UNL     1     -15.750   2.494 -15.854  0.00  0.00    +0.244 HD
ENDBRANCH   1  12
BRANCH   1  14
ATOM     14  O   UNL     1     -13.477   3.464 -15.186  0.00  0.00    -0.263 OA
ATOM     15  H   UNL     1     -12.789   2.786 -15.272  0.00  0.00    +0.244 HD
ENDBRANCH   1  14
BRANCH   1  16
ATOM     16  O   UNL     1     -13.280   2.865 -17.591  0.00  0.00    -0.363 OA
BRANCH  16  21
ATOM     17 CL   UNL     1      -9.229  -1.100 -16.071  0.00  0.00    -0.084 Cl
ATOM     18  C   UNL     1     -10.401   0.078 -16.516  0.00  0.00    +0.041 A 
ATOM     19  C   UNL     1      -9.996   1.377 -16.825  0.00  0.00    +0.023 A 
ATOM     20  C   UNL     1     -10.946   2.336 -17.186  0.00  0.00    +0.050 A 
ATOM     21  C   UNL     1     -12.296   1.987 -17.223  0.00  0.00    +0.155 A 
ATOM     22  C   UNL     1     -12.697   0.682 -16.936  0.00  0.00    +0.050 A 
ATOM     23  C   UNL     1     -11.749  -0.275 -16.573  0.00  0.00    +0.023 A 
ENDBRANCH  16  21
ENDBRANCH   1  16
TORSDOF 5
ENDMDL
MODEL 5
REMARK VINA RESULT:      -7.0      1.962      3.360
REMARK  Name = min_compound996.pdb
REMARK  5 active torsions:
REMARK  status: ('A' for Active; 'I' for Inactive)
REMARK    1  A    between atoms: _2  and  _9
REMARK    2  A    between atoms: _2  and  _19
REMARK    3  A    between atoms: _10  and  _19
REMARK    4  A    between atoms: _19  and  _20
REMARK    5  A    between atoms: _19  and  _21
REMARK                            x       y       z     vdW  Elec       q    Type
REMARK                         _______ _______ _______ _____ _____    ______ ____
ROOT
ATOM      1  S   UNL     1     -15.400   3.067 -16.284  0.00  0.00    -0.013 S 
ENDROOT
BRANCH   1   2
ATOM      2  C   UNL     1     -13.718   3.612 -16.387  0.00  0.00    +0.124 A 
ATOM      3  C   UNL     1     -13.441   4.813 -17.039  0.00  0.00    +0.097 A 
ATOM      4  C   UNL     1     -12.082   5.201 -17.103  0.00  0.00    +0.002 A 
ATOM      5  C   UNL     1     -11.073   4.402 -16.534  0.00  0.00    +0.010 A 
ATOM      6  C   UNL     1     -11.390   3.209 -15.892  0.00  0.00    +0.003 A 
ATOM      7  C   UNL     1     -11.757   6.403 -17.744  0.00  0.00    +0.011 A 
ATOM      8  C   UNL     1     -12.757   7.190 -18.298  0.00  0.00    +0.020 A 
ATOM      9  C   UNL     1     -14.056   6.744 -18.194  0.00  0.00    +0.111 A 
ATOM     10  N   UNL     1     -14.404   5.587 -17.588  0.00  0.00    -0.253 NA
ATOM     11  C   UNL     1     -12.716   2.808 -15.816  0.00  0.00    +0.030 A 
ENDBRANCH   1   2
BRANCH   1  12
ATOM     12  O   UNL     1     -15.377   1.762 -15.648  0.00  0.00    -0.263 OA
ATOM     13  H   UNL     1     -14.649   1.726 -15.010  0.00  0.00    +0.244 HD
ENDBRANCH   1  12
BRANCH   1  14
ATOM     14  O   UNL     1     -15.962   3.211 -17.618  0.00  0.00    -0.263 OA
ATOM     15  H   UNL     1     -15.268   3.058 -18.279  0.00  0.00    +0.244 HD
ENDBRANCH   1  14
BRANCH   1  16
ATOM     16  O   UNL     1     -16.145   4.163 -15.328  0.00  0.00    -0.363 OA
BRANCH  16  21
ATOM     17 CL   UNL     1     -16.101   3.612  -9.486  0.00  0.00    -0.084 Cl
ATOM     18  C   UNL     1     -16.130   3.758 -11.200  0.00  0.00    +0.041 A 
ATOM     19  C   UNL     1     -17.089   3.065 -11.939  0.00  0.00    +0.023 A 
ATOM     20  C   UNL     1     -17.113   3.181 -13.331  0.00  0.00    +0.050 A 
ATOM     21  C   UNL     1     -16.167   3.981 -13.972  0.00  0.00    +0.155 A 
ATOM     22  C   UNL     1     -15.223   4.691 -13.230  0.00  0.00    +0.050 A 
ATOM     23  C   UNL     1     -15.197   4.573 -11.839  0.00  0.00    +0.023 A 
ENDBRANCH  16  21
ENDBRANCH   1  16
TORSDOF 5
ENDMDL
MODEL 6
REMARK VINA RESULT:      -7.0      3.402      6.454
REMARK  Name = min_compound996.pdb
REMARK  5 active torsions:
REMARK  status: ('A' for Active; 'I' for Inactive)
REMARK    1  A    between atoms: _2  and  _9
REMARK    2  A    between atoms: _2  and  _19
REMARK    3  A    between atoms: _10  and  _19
REMARK    4  A    between atoms: _19  and  _20
REMARK    5  A    between atoms: _19  and  _21
REMARK                            x       y       z     vdW  Elec       q    Type
REMARK                         _______ _______ _______ _____ _____    ______ ____
ROOT
ATOM      1  S   UNL     1     -14.787   3.318 -16.425  0.00  0.00    -0.013 S 
ENDROOT
BRANCH   1   2
ATOM      2  C   UNL     1     -15.143   4.502 -15.157  0.00  0.00    +0.124 A 
ATOM      3  C   UNL     1     -15.189   5.854 -15.496  0.00  0.00    +0.097 A 
ATOM      4  C   UNL     1     -15.468   6.761 -14.447  0.00  0.00    +0.002 A 
ATOM      5  C   UNL     1     -15.686   6.305 -13.134  0.00  0.00    +0.010 A 
ATOM      6  C   UNL     1     -15.632   4.947 -12.836  0.00  0.00    +0.003 A 
ATOM      7  C   UNL     1     -15.528   8.129 -14.742  0.00  0.00    +0.011 A 
ATOM      8  C   UNL     1     -15.319   8.572 -16.040  0.00  0.00    +0.020 A 
ATOM      9  C   UNL     1     -15.053   7.627 -17.006  0.00  0.00    +0.111 A 
ATOM     10  N   UNL     1     -14.981   6.300 -16.755  0.00  0.00    -0.253 NA
ATOM     11  C   UNL     1     -15.359   4.039 -13.848  0.00  0.00    +0.030 A 
ENDBRANCH   1   2
BRANCH   1  12
ATOM     12  O   UNL     1     -15.606   3.672 -17.570  0.00  0.00    -0.263 OA
ATOM     13  H   UNL     1     -15.292   4.508 -17.945  0.00  0.00    +0.244 HD
ENDBRANCH   1  12
BRANCH   1  14
ATOM     14  O   UNL     1     -14.929   2.005 -15.813  0.00  0.00    -0.263 OA
ATOM     15  H   UNL     1     -15.536   1.465 -16.344  0.00  0.00    +0.244 HD
ENDBRANCH   1  14
BRANCH   1  16
ATOM     16  O   UNL     1     -13.201   3.520 -16.763  0.00  0.00    -0.363 OA
BRANCH  16  21
ATOM     17 CL   UNL     1      -9.483  -0.974 -16.114  0.00  0.00    -0.084 Cl
ATOM     18  C   UNL     1     -10.580   0.335 -16.323  0.00  0.00    +0.041 A 
ATOM     19  C   UNL     1     -11.501   0.306 -17.370  0.00  0.00    +0.023 A 
ATOM     20  C   UNL     1     -12.392   1.369 -17.543  0.00  0.00    +0.050 A 
ATOM     21  C   UNL     1     -12.344   2.457 -16.672  0.00  0.00    +0.155 A 
ATOM     22  C   UNL     1     -11.437   2.473 -15.611  0.00  0.00    +0.050 A 
ATOM     23  C   UNL     1     -10.546   1.413 -15.440  0.00  0.00    +0.023 A 
ENDBRANCH  16  21
ENDBRANCH   1  16
TORSDOF 5
ENDMDL
MODEL 7
REMARK VINA RESULT:      -6.9     11.431     13.402
REMARK  Name = min_compound996.pdb
REMARK  5 active torsions:
REMARK  status: ('A' for Active; 'I' for Inactive)
REMARK    1  A    between atoms: _2  and  _9
REMARK    2  A    between atoms: _2  and  _19
REMARK    3  A    between atoms: _10  and  _19
REMARK    4  A    between atoms: _19  and  _20
REMARK    5  A    between atoms: _19  and  _21
REMARK                            x       y       z     vdW  Elec       q    Type
REMARK                         _______ _______ _______ _____ _____    ______ ____
ROOT
ATOM      1  S   UNL     1     -16.510  -1.361  -2.728  0.00  0.00    -0.013 S 
ENDROOT
BRANCH   1   2
ATOM      2  C   UNL     1     -15.510  -0.350  -3.784  0.00  0.00    +0.124 A 
ATOM      3  C   UNL     1     -15.866  -0.225  -5.126  0.00  0.00    +0.097 A 
ATOM      4  C   UNL     1     -15.031   0.586  -5.931  0.00  0.00    +0.002 A 
ATOM      5  C   UNL     1     -13.901   1.225  -5.387  0.00  0.00    +0.010 A 
ATOM      6  C   UNL     1     -13.578   1.074  -4.042  0.00  0.00    +0.003 A 
ATOM      7  C   UNL     1     -15.353   0.744  -7.285  0.00  0.00    +0.011 A 
ATOM      8  C   UNL     1     -16.473   0.117  -7.813  0.00  0.00    +0.020 A 
ATOM      9  C   UNL     1     -17.236  -0.655  -6.965  0.00  0.00    +0.111 A 
ATOM     10  N   UNL     1     -16.951  -0.835  -5.656  0.00  0.00    -0.253 NA
ATOM     11  C   UNL     1     -14.383   0.284  -3.234  0.00  0.00    +0.030 A 
ENDBRANCH   1   2
BRANCH   1  12
ATOM     12  O   UNL     1     -16.643  -2.649  -3.386  0.00  0.00    -0.263 OA
ATOM     13  H   UNL     1     -17.492  -3.048  -3.144  0.00  0.00    +0.244 HD
ENDBRANCH   1  12
BRANCH   1  14
ATOM     14  O   UNL     1     -17.700  -0.582  -2.420  0.00  0.00    -0.263 OA
ATOM     15  H   UNL     1     -18.444  -1.182  -2.250  0.00  0.00    +0.244 HD
ENDBRANCH   1  14
BRANCH   1  16
ATOM     16  O   UNL     1     -15.657  -1.504  -1.342  0.00  0.00    -0.363 OA
BRANCH  16  21
ATOM     17 CL   UNL     1     -12.994  -6.558   0.001  0.00  0.00    -0.084 Cl
ATOM     18  C   UNL     1     -13.793  -5.083  -0.382  0.00  0.00    +0.041 A 
ATOM     19  C   UNL     1     -15.034  -4.799   0.188  0.00  0.00    +0.023 A 
ATOM     20  C   UNL     1     -15.685  -3.602  -0.122  0.00  0.00    +0.050 A 
ATOM     21  C   UNL     1     -15.092  -2.706  -1.011  0.00  0.00    +0.155 A 
ATOM     22  C   UNL     1     -13.840  -2.982  -1.563  0.00  0.00    +0.050 A 
ATOM     23  C   UNL     1     -13.191  -4.178  -1.255  0.00  0.00    +0.023 A 
ENDBRANCH  16  21
ENDBRANCH   1  16
TORSDOF 5
ENDMDL
MODEL 8
REMARK VINA RESULT:      -6.8      3.589      6.347
REMARK  Name = min_compound996.pdb
REMARK  5 active torsions:
REMARK  status: ('A' for Active; 'I' for Inactive)
REMARK    1  A    between atoms: _2  and  _9
REMARK    2  A    between atoms: _2  and  _19
REMARK    3  A    between atoms: _10  and  _19
REMARK    4  A    between atoms: _19  and  _20
REMARK    5  A    between atoms: _19  and  _21
REMARK                            x       y       z     vdW  Elec       q    Type
REMARK                         _______ _______ _______ _____ _____    ______ ____
ROOT
ATOM      1  S   UNL     1     -14.200   4.014 -17.142  0.00  0.00    -0.013 S 
ENDROOT
BRANCH   1   2
ATOM      2  C   UNL     1     -14.532   5.713 -16.772  0.00  0.00    +0.124 A 
ATOM      3  C   UNL     1     -15.218   6.023 -15.600  0.00  0.00    +0.097 A 
ATOM      4  C   UNL     1     -15.467   7.394 -15.354  0.00  0.00    +0.002 A 
ATOM      5  C   UNL     1     -15.038   8.382 -16.259  0.00  0.00    +0.010 A 
ATOM      6  C   UNL     1     -14.356   8.032 -17.420  0.00  0.00    +0.003 A 
ATOM      7  C   UNL     1     -16.150   7.753 -14.184  0.00  0.00    +0.011 A 
ATOM      8  C   UNL     1     -16.565   6.774 -13.292  0.00  0.00    +0.020 A 
ATOM      9  C   UNL     1     -16.284   5.462 -13.602  0.00  0.00    +0.111 A 
ATOM     10  N   UNL     1     -15.634   5.081 -14.723  0.00  0.00    -0.253 NA
ATOM     11  C   UNL     1     -14.100   6.694 -17.682  0.00  0.00    +0.030 A 
ENDBRANCH   1   2
BRANCH   1  12
ATOM     12  O   UNL     1     -13.405   3.998 -18.356  0.00  0.00    -0.263 OA
ATOM     13  H   UNL     1     -13.676   4.730 -18.930  0.00  0.00    +0.244 HD
ENDBRANCH   1  12
BRANCH   1  14
ATOM     14  O   UNL     1     -15.483   3.327 -17.109  0.00  0.00    -0.263 OA
ATOM     15  H   UNL     1     -16.073   3.776 -16.484  0.00  0.00    +0.244 HD
ENDBRANCH   1  14
BRANCH   1  16
ATOM     16  O   UNL     1     -13.329   3.464 -15.873  0.00  0.00    -0.363 OA
BRANCH  16  21
ATOM     17 CL   UNL     1      -9.518  -0.968 -16.398  0.00  0.00    -0.084 Cl
ATOM     18  C   UNL     1     -10.651   0.319 -16.255  0.00  0.00    +0.041 A 
ATOM     19  C   UNL     1     -11.966   0.136 -16.681  0.00  0.00    +0.023 A 
ATOM     20  C   UNL     1     -12.888   1.180 -16.567  0.00  0.00    +0.050 A 
ATOM     21  C   UNL     1     -12.478   2.405 -16.039  0.00  0.00    +0.155 A 
ATOM     22  C   UNL     1     -11.168   2.580 -15.593  0.00  0.00    +0.050 A 
ATOM     23  C   UNL     1     -10.247   1.537 -15.709  0.00  0.00    +0.023 A 
ENDBRANCH  16  21
ENDBRANCH   1  16
TORSDOF 5
ENDMDL
MODEL 9
REMARK VINA RESULT:      -6.8      8.817     11.270
REMARK  Name = min_compound996.pdb
REMARK  5 active torsions:
REMARK  status: ('A' for Active; 'I' for Inactive)
REMARK    1  A    between atoms: _2  and  _9
REMARK    2  A    between atoms: _2  and  _19
REMARK    3  A    between atoms: _10  and  _19
REMARK    4  A    between atoms: _19  and  _20
REMARK    5  A    between atoms: _19  and  _21
REMARK                            x       y       z     vdW  Elec       q    Type
REMARK                         _______ _______ _______ _____ _____    ______ ____
ROOT
ATOM      1  S   UNL     1     -17.364   2.552  -4.347  0.00  0.00    -0.013 S 
ENDROOT
BRANCH   1   2
ATOM      2  C   UNL     1     -15.792   1.875  -3.891  0.00  0.00    +0.124 A 
ATOM      3  C   UNL     1     -15.727   0.542  -3.490  0.00  0.00    +0.097 A 
ATOM      4  C   UNL     1     -14.451   0.050  -3.127  0.00  0.00    +0.002 A 
ATOM      5  C   UNL     1     -13.315   0.879  -3.175  0.00  0.00    +0.010 A 
ATOM      6  C   UNL     1     -13.421   2.206  -3.581  0.00  0.00    +0.003 A 
ATOM      7  C   UNL     1     -14.337  -1.286  -2.721  0.00  0.00    +0.011 A 
ATOM      8  C   UNL     1     -15.460  -2.101  -2.683  0.00  0.00    +0.020 A 
ATOM      9  C   UNL     1     -16.667  -1.548  -3.052  0.00  0.00    +0.111 A 
ATOM     10  N   UNL     1     -16.813  -0.263  -3.442  0.00  0.00    -0.253 NA
ATOM     11  C   UNL     1     -14.662   2.710  -3.941  0.00  0.00    +0.030 A 
ENDBRANCH   1   2
BRANCH   1  12
ATOM     12  O   UNL     1     -17.113   3.894  -4.841  0.00  0.00    -0.263 OA
ATOM     13  H   UNL     1     -17.181   3.899  -5.808  0.00  0.00    +0.244 HD
ENDBRANCH   1  12
BRANCH   1  14
ATOM     14  O   UNL     1     -18.243   2.356  -3.203  0.00  0.00    -0.263 OA
ATOM     15  H   UNL     1     -19.160   2.532  -3.467  0.00  0.00    +0.244 HD
ENDBRANCH   1  14
BRANCH   1  16
ATOM     16  O   UNL     1     -17.913   1.587  -5.545  0.00  0.00    -0.363 OA
BRANCH  16  21
ATOM     17 CL   UNL     1     -17.014   3.076 -11.149  0.00  0.00    -0.084 Cl
ATOM     18  C   UNL     1     -17.256   2.634  -9.505  0.00  0.00    +0.041 A 
ATOM     19  C   UNL     1     -16.165   2.260  -8.719  0.00  0.00    +0.023 A 
ATOM     20  C   UNL     1     -16.360   1.899  -7.383  0.00  0.00    +0.050 A 
ATOM     21  C   UNL     1     -17.649   1.903  -6.850  0.00  0.00    +0.155 A 
ATOM     22  C   UNL     1     -18.736   2.298  -7.630  0.00  0.00    +0.050 A 
ATOM     23  C   UNL     1     -18.542   2.657  -8.965  0.00  0.00    +0.023 A 
ENDBRANCH  16  21
ENDBRANCH   1  16
TORSDOF 5
ENDMDL
