MODEL 1
REMARK VINA RESULT:      -5.8      0.000      0.000
REMARK  Name = min_compound965.pdb
REMARK  9 active torsions:
REMARK  status: ('A' for Active; 'I' for Inactive)
REMARK    1  A    between atoms: _1  and  _3
REMARK    2  A    between atoms: _1  and  _12
REMARK    3  A    between atoms: _6  and  _8
REMARK    4  A    between atoms: _7  and  _13
REMARK    5  A    between atoms: _8  and  _14
REMARK    6  A    between atoms: _11  and  _15
REMARK    7  A    between atoms: _11  and  _16
REMARK    8  A    between atoms: _15  and  _18
REMARK    9  A    between atoms: _16  and  _17
REMARK                            x       y       z     vdW  Elec       q    Type
REMARK                         _______ _______ _______ _____ _____    ______ ____
ROOT
ATOM      1  N   UNL     1     -15.742   1.159  -6.147  0.00  0.00    -0.266 N 
ATOM      2  H   UNL     1     -15.211   1.853  -5.666  0.00  0.00    +0.156 HD
ATOM      3  C   UNL     1     -15.321  -0.137  -5.916  0.00  0.00    +0.307 C 
ATOM      4  N   UNL     1     -14.837  -0.384  -4.629  0.00  0.00    -0.278 N 
ATOM      5  O   UNL     1     -15.369  -1.028  -6.762  0.00  0.00    -0.252 OA
ENDROOT
BRANCH   1   8
ATOM      6  C   UNL     1     -16.669   2.933  -9.416  0.00  0.00    +0.122 A 
ATOM      7  C   UNL     1     -16.015   2.409  -8.278  0.00  0.00    +0.072 A 
ATOM      8  C   UNL     1     -16.626   1.584  -7.183  0.00  0.00    +0.080 A 
ATOM      9  C   UNL     1     -18.003   1.194  -7.223  0.00  0.00    +0.141 A 
ATOM     10  C   UNL     1     -18.659   1.726  -8.378  0.00  0.00    +0.051 A 
ATOM     11  C   UNL     1     -18.021   2.569  -9.437  0.00  0.00    +0.049 A 
BRANCH   6  12
ATOM     12  O   UNL     1     -15.894   3.714 -10.344  0.00  0.00    -0.495 OA
ATOM     13  C   UNL     1     -16.075   5.202 -10.293  0.00  0.00    +0.277 C 
ENDBRANCH   6  12
BRANCH   9  14
ATOM     14  O   UNL     1     -18.840   0.385  -6.315  0.00  0.00    -0.493 OA
ATOM     15  C   UNL     1     -20.063  -0.204  -6.953  0.00  0.00    +0.277 C 
ENDBRANCH   9  14
ENDBRANCH   1   8
BRANCH   4  16
ATOM     16  C   UNL     1     -14.924   0.566  -3.520  0.00  0.00    +0.136 C 
BRANCH  16  17
ATOM     17  C   UNL     1     -13.597   1.254  -3.369  0.00  0.00    -0.016 C 
ATOM     18  C   UNL     1     -13.400   2.564  -3.571  0.00  0.00    +0.005 C 
ENDBRANCH  16  17
ENDBRANCH   4  16
BRANCH   4  19
ATOM     19  C   UNL     1     -14.594  -1.789  -4.286  0.00  0.00    +0.136 C 
BRANCH  19  20
ATOM     20  C   UNL     1     -15.013  -2.092  -2.880  0.00  0.00    -0.016 C 
ATOM     21  C   UNL     1     -14.191  -2.548  -1.926  0.00  0.00    +0.005 C 
ENDBRANCH  19  20
ENDBRANCH   4  19
TORSDOF 7
ENDMDL
MODEL 2
REMARK VINA RESULT:      -5.7      7.732     10.946
REMARK  Name = min_compound965.pdb
REMARK  9 active torsions:
REMARK  status: ('A' for Active; 'I' for Inactive)
REMARK    1  A    between atoms: _1  and  _3
REMARK    2  A    between atoms: _1  and  _12
REMARK    3  A    between atoms: _6  and  _8
REMARK    4  A    between atoms: _7  and  _13
REMARK    5  A    between atoms: _8  and  _14
REMARK    6  A    between atoms: _11  and  _15
REMARK    7  A    between atoms: _11  and  _16
REMARK    8  A    between atoms: _15  and  _18
REMARK    9  A    between atoms: _16  and  _17
REMARK                            x       y       z     vdW  Elec       q    Type
REMARK                         _______ _______ _______ _____ _____    ______ ____
ROOT
ATOM      1  N   UNL     1     -13.507   3.807 -14.810  0.00  0.00    -0.266 N 
ATOM      2  H   UNL     1     -13.293   4.110 -13.883  0.00  0.00    +0.156 HD
ATOM      3  C   UNL     1     -14.830   3.452 -14.998  0.00  0.00    +0.307 C 
ATOM      4  N   UNL     1     -15.756   4.200 -14.268  0.00  0.00    -0.278 N 
ATOM      5  O   UNL     1     -15.190   2.553 -15.756  0.00  0.00    -0.252 OA
ENDROOT
BRANCH   1   8
ATOM      6  C   UNL     1     -10.455   1.837 -16.033  0.00  0.00    +0.122 A 
ATOM      7  C   UNL     1     -11.569   2.338 -15.322  0.00  0.00    +0.072 A 
ATOM      8  C   UNL     1     -12.424   3.515 -15.691  0.00  0.00    +0.080 A 
ATOM      9  C   UNL     1     -12.198   4.252 -16.898  0.00  0.00    +0.141 A 
ATOM     10  C   UNL     1     -11.071   3.739 -17.615  0.00  0.00    +0.051 A 
ATOM     11  C   UNL     1     -10.224   2.577 -17.200  0.00  0.00    +0.049 A 
BRANCH   6  12
ATOM     12  O   UNL     1      -9.762   0.696 -15.493  0.00  0.00    -0.495 OA
ATOM     13  C   UNL     1      -9.791  -0.561 -16.310  0.00  0.00    +0.277 C 
ENDBRANCH   6  12
BRANCH   9  14
ATOM     14  O   UNL     1     -12.883   5.409 -17.506  0.00  0.00    -0.493 OA
ATOM     15  C   UNL     1     -11.978   6.550 -17.868  0.00  0.00    +0.277 C 
ENDBRANCH   9  14
ENDBRANCH   1   8
BRANCH   4  16
ATOM     16  C   UNL     1     -15.423   5.397 -13.497  0.00  0.00    +0.136 C 
BRANCH  16  17
ATOM     17  C   UNL     1     -14.847   4.977 -12.174  0.00  0.00    -0.016 C 
ATOM     18  C   UNL     1     -15.580   4.698 -11.088  0.00  0.00    +0.005 C 
ENDBRANCH  16  17
ENDBRANCH   4  16
BRANCH   4  19
ATOM     19  C   UNL     1     -17.167   3.999 -14.611  0.00  0.00    +0.136 C 
BRANCH  19  20
ATOM     20  C   UNL     1     -17.872   3.174 -13.579  0.00  0.00    -0.016 C 
ATOM     21  C   UNL     1     -18.810   3.643 -12.745  0.00  0.00    +0.005 C 
ENDBRANCH  19  20
ENDBRANCH   4  19
TORSDOF 7
ENDMDL
MODEL 3
REMARK VINA RESULT:      -5.6      7.830     11.519
REMARK  Name = min_compound965.pdb
REMARK  9 active torsions:
REMARK  status: ('A' for Active; 'I' for Inactive)
REMARK    1  A    between atoms: _1  and  _3
REMARK    2  A    between atoms: _1  and  _12
REMARK    3  A    between atoms: _6  and  _8
REMARK    4  A    between atoms: _7  and  _13
REMARK    5  A    between atoms: _8  and  _14
REMARK    6  A    between atoms: _11  and  _15
REMARK    7  A    between atoms: _11  and  _16
REMARK    8  A    between atoms: _15  and  _18
REMARK    9  A    between atoms: _16  and  _17
REMARK                            x       y       z     vdW  Elec       q    Type
REMARK                         _______ _______ _______ _____ _____    ______ ____
ROOT
ATOM      1  N   UNL     1     -13.468   2.943 -15.930  0.00  0.00    -0.266 N 
ATOM      2  H   UNL     1     -13.960   2.077 -15.971  0.00  0.00    +0.156 HD
ATOM      3  C   UNL     1     -12.092   2.812 -15.928  0.00  0.00    +0.307 C 
ATOM      4  N   UNL     1     -11.594   1.752 -16.689  0.00  0.00    -0.278 N 
ATOM      5  O   UNL     1     -11.339   3.569 -15.316  0.00  0.00    -0.252 OA
ENDROOT
BRANCH   1   8
ATOM      6  C   UNL     1     -15.545   5.221 -13.651  0.00  0.00    +0.122 A 
ATOM      7  C   UNL     1     -14.794   4.167 -14.222  0.00  0.00    +0.072 A 
ATOM      8  C   UNL     1     -14.201   4.121 -15.600  0.00  0.00    +0.080 A 
ATOM      9  C   UNL     1     -14.313   5.231 -16.497  0.00  0.00    +0.141 A 
ATOM     10  C   UNL     1     -15.071   6.296 -15.914  0.00  0.00    +0.051 A 
ATOM     11  C   UNL     1     -15.671   6.293 -14.543  0.00  0.00    +0.049 A 
BRANCH   6  12
ATOM     12  O   UNL     1     -16.035   5.055 -12.308  0.00  0.00    -0.495 OA
ATOM     13  C   UNL     1     -15.034   4.641 -11.270  0.00  0.00    +0.277 C 
ENDBRANCH   6  12
BRANCH   9  14
ATOM     14  O   UNL     1     -13.818   5.462 -17.869  0.00  0.00    -0.493 OA
ATOM     15  C   UNL     1     -12.409   5.971 -17.946  0.00  0.00    +0.277 C 
ENDBRANCH   9  14
ENDBRANCH   1   8
BRANCH   4  16
ATOM     16  C   UNL     1     -12.405   0.932 -17.588  0.00  0.00    +0.136 C 
BRANCH  16  17
ATOM     17  C   UNL     1     -12.416   1.571 -18.948  0.00  0.00    -0.016 C 
ATOM     18  C   UNL     1     -13.439   2.284 -19.437  0.00  0.00    +0.005 C 
ENDBRANCH  16  17
ENDBRANCH   4  16
BRANCH   4  19
ATOM     19  C   UNL     1     -10.141   1.722 -16.887  0.00  0.00    +0.136 C 
BRANCH  19  20
ATOM     20  C   UNL     1      -9.635   0.319 -17.024  0.00  0.00    -0.016 C 
ATOM     21  C   UNL     1      -9.632  -0.586 -16.035  0.00  0.00    +0.005 C 
ENDBRANCH  19  20
ENDBRANCH   4  19
TORSDOF 7
ENDMDL
MODEL 4
REMARK VINA RESULT:      -5.6      7.181     10.709
REMARK  Name = min_compound965.pdb
REMARK  9 active torsions:
REMARK  status: ('A' for Active; 'I' for Inactive)
REMARK    1  A    between atoms: _1  and  _3
REMARK    2  A    between atoms: _1  and  _12
REMARK    3  A    between atoms: _6  and  _8
REMARK    4  A    between atoms: _7  and  _13
REMARK    5  A    between atoms: _8  and  _14
REMARK    6  A    between atoms: _11  and  _15
REMARK    7  A    between atoms: _11  and  _16
REMARK    8  A    between atoms: _15  and  _18
REMARK    9  A    between atoms: _16  and  _17
REMARK                            x       y       z     vdW  Elec       q    Type
REMARK                         _______ _______ _______ _____ _____    ______ ____
ROOT
ATOM      1  N   UNL     1     -13.449   3.762 -15.598  0.00  0.00    -0.266 N 
ATOM      2  H   UNL     1     -12.599   4.265 -15.738  0.00  0.00    +0.156 HD
ATOM      3  C   UNL     1     -13.481   2.523 -16.208  0.00  0.00    +0.307 C 
ATOM      4  N   UNL     1     -12.259   1.846 -16.247  0.00  0.00    -0.278 N 
ATOM      5  O   UNL     1     -14.502   2.025 -16.681  0.00  0.00    -0.252 OA
ENDROOT
BRANCH   1   8
ATOM      6  C   UNL     1     -16.120   4.566 -12.968  0.00  0.00    +0.122 A 
ATOM      7  C   UNL     1     -15.048   4.023 -13.713  0.00  0.00    +0.072 A 
ATOM      8  C   UNL     1     -14.569   4.467 -15.065  0.00  0.00    +0.080 A 
ATOM      9  C   UNL     1     -15.166   5.579 -15.740  0.00  0.00    +0.141 A 
ATOM     10  C   UNL     1     -16.249   6.126 -14.980  0.00  0.00    +0.051 A 
ATOM     11  C   UNL     1     -16.715   5.638 -13.644  0.00  0.00    +0.049 A 
BRANCH   6  12
ATOM     12  O   UNL     1     -16.422   3.980 -11.688  0.00  0.00    -0.495 OA
ATOM     13  C   UNL     1     -15.729   4.567 -10.495  0.00  0.00    +0.277 C 
ENDBRANCH   6  12
BRANCH   9  14
ATOM     14  O   UNL     1     -14.887   6.230 -17.035  0.00  0.00    -0.493 OA
ATOM     15  C   UNL     1     -14.580   7.695 -16.943  0.00  0.00    +0.277 C 
ENDBRANCH   9  14
ENDBRANCH   1   8
BRANCH   4  16
ATOM     16  C   UNL     1     -11.054   2.285 -15.546  0.00  0.00    +0.136 C 
BRANCH  16  17
ATOM     17  C   UNL     1     -10.311   3.255 -16.420  0.00  0.00    -0.016 C 
ATOM     18  C   UNL     1     -10.005   4.510 -16.064  0.00  0.00    +0.005 C 
ENDBRANCH  16  17
ENDBRANCH   4  16
BRANCH   4  19
ATOM     19  C   UNL     1     -12.306   0.448 -16.684  0.00  0.00    +0.136 C 
BRANCH  19  20
ATOM     20  C   UNL     1     -11.024  -0.266 -16.380  0.00  0.00    -0.016 C 
ATOM     21  C   UNL     1     -10.165  -0.709 -17.307  0.00  0.00    +0.005 C 
ENDBRANCH  19  20
ENDBRANCH   4  19
TORSDOF 7
ENDMDL
MODEL 5
REMARK VINA RESULT:      -5.5      1.779      2.964
REMARK  Name = min_compound965.pdb
REMARK  9 active torsions:
REMARK  status: ('A' for Active; 'I' for Inactive)
REMARK    1  A    between atoms: _1  and  _3
REMARK    2  A    between atoms: _1  and  _12
REMARK    3  A    between atoms: _6  and  _8
REMARK    4  A    between atoms: _7  and  _13
REMARK    5  A    between atoms: _8  and  _14
REMARK    6  A    between atoms: _11  and  _15
REMARK    7  A    between atoms: _11  and  _16
REMARK    8  A    between atoms: _15  and  _18
REMARK    9  A    between atoms: _16  and  _17
REMARK                            x       y       z     vdW  Elec       q    Type
REMARK                         _______ _______ _______ _____ _____    ______ ____
ROOT
ATOM      1  N   UNL     1     -16.491   1.580  -7.559  0.00  0.00    -0.266 N 
ATOM      2  H   UNL     1     -16.288   0.619  -7.732  0.00  0.00    +0.156 HD
ATOM      3  C   UNL     1     -16.557   1.911  -6.218  0.00  0.00    +0.307 C 
ATOM      4  N   UNL     1     -15.675   1.215  -5.389  0.00  0.00    -0.278 N 
ATOM      5  O   UNL     1     -17.322   2.762  -5.766  0.00  0.00    -0.252 OA
ENDROOT
BRANCH   1   8
ATOM      6  C   UNL     1     -16.105   4.032 -10.480  0.00  0.00    +0.122 A 
ATOM      7  C   UNL     1     -15.908   3.181  -9.368  0.00  0.00    +0.072 A 
ATOM      8  C   UNL     1     -16.953   2.380  -8.646  0.00  0.00    +0.080 A 
ATOM      9  C   UNL     1     -18.318   2.373  -9.078  0.00  0.00    +0.141 A 
ATOM     10  C   UNL     1     -18.510   3.234 -10.204  0.00  0.00    +0.051 A 
ATOM     11  C   UNL     1     -17.446   4.040 -10.882  0.00  0.00    +0.049 A 
BRANCH   6  12
ATOM     12  O   UNL     1     -14.961   4.722 -11.016  0.00  0.00    -0.495 OA
ATOM     13  C   UNL     1     -15.037   5.141 -12.455  0.00  0.00    +0.277 C 
ENDBRANCH   6  12
BRANCH   9  14
ATOM     14  O   UNL     1     -19.520   1.676  -8.581  0.00  0.00    -0.493 OA
ATOM     15  C   UNL     1     -20.359   2.479  -7.632  0.00  0.00    +0.277 C 
ENDBRANCH   9  14
ENDBRANCH   1   8
BRANCH   4  16
ATOM     16  C   UNL     1     -14.614   0.333  -5.874  0.00  0.00    +0.136 C 
BRANCH  16  17
ATOM     17  C   UNL     1     -14.996  -1.090  -5.581  0.00  0.00    -0.016 C 
ATOM     18  C   UNL     1     -14.603  -1.768  -4.495  0.00  0.00    +0.005 C 
ENDBRANCH  16  17
ENDBRANCH   4  16
BRANCH   4  19
ATOM     19  C   UNL     1     -15.564   1.698  -4.009  0.00  0.00    +0.136 C 
BRANCH  19  20
ATOM     20  C   UNL     1     -14.146   1.663  -3.527  0.00  0.00    -0.016 C 
ATOM     21  C   UNL     1     -13.313   2.712  -3.547  0.00  0.00    +0.005 C 
ENDBRANCH  19  20
ENDBRANCH   4  19
TORSDOF 7
ENDMDL
MODEL 6
REMARK VINA RESULT:      -5.4      3.664      8.054
REMARK  Name = min_compound965.pdb
REMARK  9 active torsions:
REMARK  status: ('A' for Active; 'I' for Inactive)
REMARK    1  A    between atoms: _1  and  _3
REMARK    2  A    between atoms: _1  and  _12
REMARK    3  A    between atoms: _6  and  _8
REMARK    4  A    between atoms: _7  and  _13
REMARK    5  A    between atoms: _8  and  _14
REMARK    6  A    between atoms: _11  and  _15
REMARK    7  A    between atoms: _11  and  _16
REMARK    8  A    between atoms: _15  and  _18
REMARK    9  A    between atoms: _16  and  _17
REMARK                            x       y       z     vdW  Elec       q    Type
REMARK                         _______ _______ _______ _____ _____    ______ ____
ROOT
ATOM      1  N   UNL     1     -14.683  -2.692  -3.616  0.00  0.00    -0.266 N 
ATOM      2  H   UNL     1     -14.063  -2.988  -4.339  0.00  0.00    +0.156 HD
ATOM      3  C   UNL     1     -14.821  -1.320  -3.517  0.00  0.00    +0.307 C 
ATOM      4  N   UNL     1     -14.766  -0.627  -4.728  0.00  0.00    -0.278 N 
ATOM      5  O   UNL     1     -14.992  -0.730  -2.450  0.00  0.00    -0.252 OA
ENDROOT
BRANCH   1   8
ATOM      6  C   UNL     1     -14.141  -5.439  -0.998  0.00  0.00    +0.122 A 
ATOM      7  C   UNL     1     -13.998  -4.447  -1.995  0.00  0.00    +0.072 A 
ATOM      8  C   UNL     1     -15.093  -3.651  -2.643  0.00  0.00    +0.080 A 
ATOM      9  C   UNL     1     -16.461  -3.806  -2.250  0.00  0.00    +0.141 A 
ATOM     10  C   UNL     1     -16.600  -4.810  -1.239  0.00  0.00    +0.051 A 
ATOM     11  C   UNL     1     -15.484  -5.603  -0.635  0.00  0.00    +0.049 A 
BRANCH   6  12
ATOM     12  O   UNL     1     -12.953  -6.094  -0.518  0.00  0.00    -0.495 OA
ATOM     13  C   UNL     1     -13.070  -7.553  -0.188  0.00  0.00    +0.277 C 
ENDBRANCH   6  12
BRANCH   9  14
ATOM     14  O   UNL     1     -17.709  -3.153  -2.692  0.00  0.00    -0.493 OA
ATOM     15  C   UNL     1     -18.377  -2.311  -1.646  0.00  0.00    +0.277 C 
ENDBRANCH   9  14
ENDBRANCH   1   8
BRANCH   4  16
ATOM     16  C   UNL     1     -14.755  -1.268  -6.043  0.00  0.00    +0.136 C 
BRANCH  16  17
ATOM     17  C   UNL     1     -15.566  -0.435  -6.994  0.00  0.00    -0.016 C 
ATOM     18  C   UNL     1     -16.541  -0.918  -7.776  0.00  0.00    +0.005 C 
ENDBRANCH  16  17
ENDBRANCH   4  16
BRANCH   4  19
ATOM     19  C   UNL     1     -15.130   0.792  -4.681  0.00  0.00    +0.136 C 
BRANCH  19  20
ATOM     20  C   UNL     1     -13.916   1.670  -4.646  0.00  0.00    -0.016 C 
ATOM     21  C   UNL     1     -13.500   2.345  -3.567  0.00  0.00    +0.005 C 
ENDBRANCH  19  20
ENDBRANCH   4  19
TORSDOF 7
ENDMDL
MODEL 7
REMARK VINA RESULT:      -5.4      8.899     11.257
REMARK  Name = min_compound965.pdb
REMARK  9 active torsions:
REMARK  status: ('A' for Active; 'I' for Inactive)
REMARK    1  A    between atoms: _1  and  _3
REMARK    2  A    between atoms: _1  and  _12
REMARK    3  A    between atoms: _6  and  _8
REMARK    4  A    between atoms: _7  and  _13
REMARK    5  A    between atoms: _8  and  _14
REMARK    6  A    between atoms: _11  and  _15
REMARK    7  A    between atoms: _11  and  _16
REMARK    8  A    between atoms: _15  and  _18
REMARK    9  A    between atoms: _16  and  _17
REMARK                            x       y       z     vdW  Elec       q    Type
REMARK                         _______ _______ _______ _____ _____    ______ ____
ROOT
ATOM      1  N   UNL     1     -13.602   3.122 -15.970  0.00  0.00    -0.266 N 
ATOM      2  H   UNL     1     -14.182   2.314 -16.043  0.00  0.00    +0.156 HD
ATOM      3  C   UNL     1     -12.262   2.842 -15.784  0.00  0.00    +0.307 C 
ATOM      4  N   UNL     1     -11.797   1.697 -16.435  0.00  0.00    -0.278 N 
ATOM      5  O   UNL     1     -11.509   3.542 -15.108  0.00  0.00    -0.252 OA
ENDROOT
BRANCH   1   8
ATOM      6  C   UNL     1     -14.449   6.752 -16.868  0.00  0.00    +0.122 A 
ATOM      7  C   UNL     1     -13.940   5.433 -16.820  0.00  0.00    +0.072 A 
ATOM      8  C   UNL     1     -14.231   4.389 -15.782  0.00  0.00    +0.080 A 
ATOM      9  C   UNL     1     -15.143   4.639 -14.707  0.00  0.00    +0.141 A 
ATOM     10  C   UNL     1     -15.657   5.974 -14.763  0.00  0.00    +0.051 A 
ATOM     11  C   UNL     1     -15.321   6.998 -15.802  0.00  0.00    +0.049 A 
BRANCH   6  12
ATOM     12  O   UNL     1     -14.029   7.601 -17.953  0.00  0.00    -0.495 OA
ATOM     13  C   UNL     1     -13.588   6.919 -19.214  0.00  0.00    +0.277 C 
ENDBRANCH   6  12
BRANCH   9  14
ATOM     14  O   UNL     1     -15.621   3.806 -13.587  0.00  0.00    -0.493 OA
ATOM     15  C   UNL     1     -16.639   2.771 -13.968  0.00  0.00    +0.277 C 
ENDBRANCH   9  14
ENDBRANCH   1   8
BRANCH   4  16
ATOM     16  C   UNL     1     -12.578   0.925 -17.401  0.00  0.00    +0.136 C 
BRANCH  16  17
ATOM     17  C   UNL     1     -12.344   1.489 -18.773  0.00  0.00    -0.016 C 
ATOM     18  C   UNL     1     -13.262   2.164 -19.478  0.00  0.00    +0.005 C 
ENDBRANCH  16  17
ENDBRANCH   4  16
BRANCH   4  19
ATOM     19  C   UNL     1     -10.344   1.498 -16.441  0.00  0.00    +0.136 C 
BRANCH  19  20
ATOM     20  C   UNL     1      -9.948   0.322 -15.602  0.00  0.00    -0.016 C 
ATOM     21  C   UNL     1      -9.561  -0.863 -16.092  0.00  0.00    +0.005 C 
ENDBRANCH  19  20
ENDBRANCH   4  19
TORSDOF 7
ENDMDL
MODEL 8
REMARK VINA RESULT:      -5.3      3.583      7.997
REMARK  Name = min_compound965.pdb
REMARK  9 active torsions:
REMARK  status: ('A' for Active; 'I' for Inactive)
REMARK    1  A    between atoms: _1  and  _3
REMARK    2  A    between atoms: _1  and  _12
REMARK    3  A    between atoms: _6  and  _8
REMARK    4  A    between atoms: _7  and  _13
REMARK    5  A    between atoms: _8  and  _14
REMARK    6  A    between atoms: _11  and  _15
REMARK    7  A    between atoms: _11  and  _16
REMARK    8  A    between atoms: _15  and  _18
REMARK    9  A    between atoms: _16  and  _17
REMARK                            x       y       z     vdW  Elec       q    Type
REMARK                         _______ _______ _______ _____ _____    ______ ____
ROOT
ATOM      1  N   UNL     1     -14.810  -1.867  -2.698  0.00  0.00    -0.266 N 
ATOM      2  H   UNL     1     -14.109  -1.172  -2.553  0.00  0.00    +0.156 HD
ATOM      3  C   UNL     1     -15.821  -1.479  -3.558  0.00  0.00    +0.307 C 
ATOM      4  N   UNL     1     -15.424  -0.647  -4.607  0.00  0.00    -0.278 N 
ATOM      5  O   UNL     1     -16.991  -1.838  -3.434  0.00  0.00    -0.252 OA
ENDROOT
BRANCH   1   8
ATOM      6  C   UNL     1     -14.074  -5.484  -1.666  0.00  0.00    +0.122 A 
ATOM      7  C   UNL     1     -14.193  -4.247  -2.340  0.00  0.00    +0.072 A 
ATOM      8  C   UNL     1     -14.835  -2.993  -1.823  0.00  0.00    +0.080 A 
ATOM      9  C   UNL     1     -15.377  -2.923  -0.500  0.00  0.00    +0.141 A 
ATOM     10  C   UNL     1     -15.251  -4.177   0.179  0.00  0.00    +0.051 A 
ATOM     11  C   UNL     1     -14.627  -5.416  -0.382  0.00  0.00    +0.049 A 
BRANCH   6  12
ATOM     12  O   UNL     1     -13.427  -6.572  -2.353  0.00  0.00    -0.495 OA
ATOM     13  C   UNL     1     -14.314  -7.659  -2.884  0.00  0.00    +0.277 C 
ENDBRANCH   6  12
BRANCH   9  14
ATOM     14  O   UNL     1     -16.029  -1.838   0.258  0.00  0.00    -0.493 OA
ATOM     15  C   UNL     1     -17.034  -2.300   1.271  0.00  0.00    +0.277 C 
ENDBRANCH   9  14
ENDBRANCH   1   8
BRANCH   4  16
ATOM     16  C   UNL     1     -14.031  -0.334  -4.926  0.00  0.00    +0.136 C 
BRANCH  16  17
ATOM     17  C   UNL     1     -13.779   1.115  -4.621  0.00  0.00    -0.016 C 
ATOM     18  C   UNL     1     -13.462   1.586  -3.408  0.00  0.00    +0.005 C 
ENDBRANCH  16  17
ENDBRANCH   4  16
BRANCH   4  19
ATOM     19  C   UNL     1     -16.420  -0.403  -5.654  0.00  0.00    +0.136 C 
BRANCH  19  20
ATOM     20  C   UNL     1     -15.901  -0.783  -7.006  0.00  0.00    -0.016 C 
ATOM     21  C   UNL     1     -16.674  -1.071  -8.062  0.00  0.00    +0.005 C 
ENDBRANCH  19  20
ENDBRANCH   4  19
TORSDOF 7
ENDMDL
MODEL 9
REMARK VINA RESULT:      -5.3      2.480      6.756
REMARK  Name = min_compound965.pdb
REMARK  9 active torsions:
REMARK  status: ('A' for Active; 'I' for Inactive)
REMARK    1  A    between atoms: _1  and  _3
REMARK    2  A    between atoms: _1  and  _12
REMARK    3  A    between atoms: _6  and  _8
REMARK    4  A    between atoms: _7  and  _13
REMARK    5  A    between atoms: _8  and  _14
REMARK    6  A    between atoms: _11  and  _15
REMARK    7  A    between atoms: _11  and  _16
REMARK    8  A    between atoms: _15  and  _18
REMARK    9  A    between atoms: _16  and  _17
REMARK                            x       y       z     vdW  Elec       q    Type
REMARK                         _______ _______ _______ _____ _____    ______ ____
ROOT
ATOM      1  N   UNL     1     -16.342  -0.633  -3.709  0.00  0.00    -0.266 N 
ATOM      2  H   UNL     1     -16.772   0.091  -3.175  0.00  0.00    +0.156 HD
ATOM      3  C   UNL     1     -16.063  -0.282  -5.017  0.00  0.00    +0.307 C 
ATOM      4  N   UNL     1     -15.695   1.052  -5.209  0.00  0.00    -0.278 N 
ATOM      5  O   UNL     1     -16.118  -1.072  -5.958  0.00  0.00    -0.252 OA
ENDROOT
BRANCH   1   8
ATOM      6  C   UNL     1     -14.719  -3.857  -2.418  0.00  0.00    +0.122 A 
ATOM      7  C   UNL     1     -14.990  -2.575  -2.949  0.00  0.00    +0.072 A 
ATOM      8  C   UNL     1     -16.338  -1.956  -3.175  0.00  0.00    +0.080 A 
ATOM      9  C   UNL     1     -17.543  -2.636  -2.806  0.00  0.00    +0.141 A 
ATOM     10  C   UNL     1     -17.262  -3.932  -2.268  0.00  0.00    +0.051 A 
ATOM     11  C   UNL     1     -15.902  -4.527  -2.083  0.00  0.00    +0.049 A 
BRANCH   6  12
ATOM     12  O   UNL     1     -13.343  -4.264  -2.296  0.00  0.00    -0.495 OA
ATOM     13  C   UNL     1     -12.858  -4.602  -0.917  0.00  0.00    +0.277 C 
ENDBRANCH   6  12
BRANCH   9  14
ATOM     14  O   UNL     1     -18.968  -2.263  -2.891  0.00  0.00    -0.493 OA
ATOM     15  C   UNL     1     -19.434  -1.329  -1.814  0.00  0.00    +0.277 C 
ENDBRANCH   9  14
ENDBRANCH   1   8
BRANCH   4  16
ATOM     16  C   UNL     1     -15.426   1.996  -4.125  0.00  0.00    +0.136 C 
BRANCH  16  17
ATOM     17  C   UNL     1     -13.940   2.100  -3.932  0.00  0.00    -0.016 C 
ATOM     18  C   UNL     1     -13.209   1.228  -3.225  0.00  0.00    +0.005 C 
ENDBRANCH  16  17
ENDBRANCH   4  16
BRANCH   4  19
ATOM     19  C   UNL     1     -15.182   1.398  -6.538  0.00  0.00    +0.136 C 
BRANCH  19  20
ATOM     20  C   UNL     1     -16.248   2.004  -7.398  0.00  0.00    -0.016 C 
ATOM     21  C   UNL     1     -16.807   1.396  -8.453  0.00  0.00    +0.005 C 
ENDBRANCH  19  20
ENDBRANCH   4  19
TORSDOF 7
ENDMDL
