MODEL 1
REMARK VINA RESULT:      -6.8      0.000      0.000
REMARK  Name = min_compound973.pdb
REMARK  5 active torsions:
REMARK  status: ('A' for Active; 'I' for Inactive)
REMARK    1  A    between atoms: _1  and  _2
REMARK    2  A    between atoms: _1  and  _12
REMARK    3  A    between atoms: _2  and  _13
REMARK    4  A    between atoms: _11  and  _19
REMARK    5  A    between atoms: _18  and  _20
REMARK                            x       y       z     vdW  Elec       q    Type
REMARK                         _______ _______ _______ _____ _____    ______ ____
ROOT
ATOM      1  C   UNL     1     -14.610  -3.516  -1.667  0.00  0.00    +0.115 A 
ATOM      2  C   UNL     1     -13.441  -4.259  -1.406  0.00  0.00    +0.141 A 
ATOM      3  C   UNL     1     -13.411  -5.650  -1.524  0.00  0.00    +0.049 A 
ATOM      4  C   UNL     1     -14.558  -6.359  -1.900  0.00  0.00    +0.033 A 
ATOM      5  C   UNL     1     -15.712  -5.608  -2.133  0.00  0.00    +0.088 A 
ATOM      6  N   UNL     1     -16.985  -5.947  -2.502  0.00  0.00    -0.257 N 
ATOM      7  N   UNL     1     -17.782  -4.874  -2.604  0.00  0.00    -0.067 NA
ATOM      8  N   UNL     1     -17.050  -3.805  -2.314  0.00  0.00    -0.128 NA
ATOM      9  H   UNL     1     -17.372  -6.862  -2.696  0.00  0.00    +0.191 HD
ATOM     10  C   UNL     1     -15.773  -4.220  -2.024  0.00  0.00    +0.138 A 
ENDROOT
BRANCH   1  11
ATOM     11  N   UNL     1     -14.643  -2.118  -1.555  0.00  0.00    -0.261 N 
ATOM     12  H   UNL     1     -15.134  -1.614  -0.867  0.00  0.00    +0.170 HD
BRANCH  11  13
ATOM     13  N   UNL     1     -13.950  -1.613  -2.466  0.00  0.00    -0.266 N 
ATOM     14  H   UNL     1     -13.109  -1.993  -2.808  0.00  0.00    +0.170 HD
BRANCH  13  15
ATOM     15  C   UNL     1     -14.541  -0.425  -2.934  0.00  0.00    +0.044 A 
ATOM     16  C   UNL     1     -15.918  -0.271  -3.128  0.00  0.00    +0.025 A 
ATOM     17  C   UNL     1     -16.442   0.960  -3.539  0.00  0.00    +0.005 A 
ATOM     18  C   UNL     1     -15.594   2.049  -3.781  0.00  0.00    -0.050 A 
ATOM     19  C   UNL     1     -16.149   3.393  -4.146  0.00  0.00    +0.044 C 
ATOM     20  C   UNL     1     -14.215   1.889  -3.607  0.00  0.00    +0.005 A 
ATOM     21  C   UNL     1     -13.698   0.660  -3.196  0.00  0.00    +0.025 A 
ENDBRANCH  13  15
ENDBRANCH  11  13
ENDBRANCH   1  11
BRANCH   2  22
ATOM     22  O   UNL     1     -12.303  -3.587  -1.033  0.00  0.00    -0.505 OA
ATOM     23  H   UNL     1     -11.673  -3.576  -1.770  0.00  0.00    +0.292 HD
ENDBRANCH   2  22
TORSDOF 4
ENDMDL
MODEL 2
REMARK VINA RESULT:      -6.8     12.776     14.559
REMARK  Name = min_compound973.pdb
REMARK  5 active torsions:
REMARK  status: ('A' for Active; 'I' for Inactive)
REMARK    1  A    between atoms: _1  and  _2
REMARK    2  A    between atoms: _1  and  _12
REMARK    3  A    between atoms: _2  and  _13
REMARK    4  A    between atoms: _11  and  _19
REMARK    5  A    between atoms: _18  and  _20
REMARK                            x       y       z     vdW  Elec       q    Type
REMARK                         _______ _______ _______ _____ _____    ______ ____
ROOT
ATOM      1  C   UNL     1     -12.533   2.615 -16.742  0.00  0.00    +0.115 A 
ATOM      2  C   UNL     1     -11.412   3.404 -17.071  0.00  0.00    +0.141 A 
ATOM      3  C   UNL     1     -10.157   2.840 -17.304  0.00  0.00    +0.049 A 
ATOM      4  C   UNL     1      -9.967   1.457 -17.207  0.00  0.00    +0.033 A 
ATOM      5  C   UNL     1     -11.084   0.692 -16.859  0.00  0.00    +0.088 A 
ATOM      6  N   UNL     1     -11.271  -0.650 -16.671  0.00  0.00    -0.257 N 
ATOM      7  N   UNL     1     -12.536  -0.938 -16.331  0.00  0.00    -0.067 NA
ATOM      8  N   UNL     1     -13.210   0.206 -16.298  0.00  0.00    -0.128 NA
ATOM      9  H   UNL     1     -10.604  -1.406 -16.754  0.00  0.00    +0.191 HD
ATOM     10  C   UNL     1     -12.349   1.226 -16.621  0.00  0.00    +0.138 A 
ENDROOT
BRANCH   1  11
ATOM     11  N   UNL     1     -13.797   3.177 -16.513  0.00  0.00    -0.261 N 
ATOM     12  H   UNL     1     -14.614   2.969 -17.022  0.00  0.00    +0.170 HD
BRANCH  11  13
ATOM     13  N   UNL     1     -13.725   3.983 -15.559  0.00  0.00    -0.266 N 
ATOM     14  H   UNL     1     -13.025   4.668 -15.455  0.00  0.00    +0.170 HD
BRANCH  13  15
ATOM     15  C   UNL     1     -14.783   3.776 -14.655  0.00  0.00    +0.044 A 
ATOM     16  C   UNL     1     -15.792   2.828 -14.852  0.00  0.00    +0.025 A 
ATOM     17  C   UNL     1     -16.781   2.634 -13.881  0.00  0.00    +0.005 A 
ATOM     18  C   UNL     1     -16.786   3.401 -12.709  0.00  0.00    -0.050 A 
ATOM     19  C   UNL     1     -17.794   3.151 -11.627  0.00  0.00    +0.044 C 
ATOM     20  C   UNL     1     -15.789   4.364 -12.521  0.00  0.00    +0.005 A 
ATOM     21  C   UNL     1     -14.805   4.552 -13.492  0.00  0.00    +0.025 A 
ENDBRANCH  13  15
ENDBRANCH  11  13
ENDBRANCH   1  11
BRANCH   2  22
ATOM     22  O   UNL     1     -11.572   4.764 -17.170  0.00  0.00    -0.505 OA
ATOM     23  H   UNL     1     -10.725   5.206 -17.005  0.00  0.00    +0.292 HD
ENDBRANCH   2  22
TORSDOF 4
ENDMDL
MODEL 3
REMARK VINA RESULT:      -6.8     15.888     18.060
REMARK  Name = min_compound973.pdb
REMARK  5 active torsions:
REMARK  status: ('A' for Active; 'I' for Inactive)
REMARK    1  A    between atoms: _1  and  _2
REMARK    2  A    between atoms: _1  and  _12
REMARK    3  A    between atoms: _2  and  _13
REMARK    4  A    between atoms: _11  and  _19
REMARK    5  A    between atoms: _18  and  _20
REMARK                            x       y       z     vdW  Elec       q    Type
REMARK                         _______ _______ _______ _____ _____    ______ ____
ROOT
ATOM      1  C   UNL     1     -12.447   5.227 -18.467  0.00  0.00    +0.115 A 
ATOM      2  C   UNL     1     -12.083   6.465 -19.034  0.00  0.00    +0.141 A 
ATOM      3  C   UNL     1     -12.349   6.769 -20.370  0.00  0.00    +0.049 A 
ATOM      4  C   UNL     1     -12.984   5.839 -21.201  0.00  0.00    +0.033 A 
ATOM      5  C   UNL     1     -13.318   4.609 -20.628  0.00  0.00    +0.088 A 
ATOM      6  N   UNL     1     -13.925   3.487 -21.121  0.00  0.00    -0.257 N 
ATOM      7  N   UNL     1     -14.035   2.527 -20.192  0.00  0.00    -0.067 NA
ATOM      8  N   UNL     1     -13.513   2.999 -19.066  0.00  0.00    -0.128 NA
ATOM      9  H   UNL     1     -14.280   3.309 -22.051  0.00  0.00    +0.191 HD
ATOM     10  C   UNL     1     -13.066   4.277 -19.298  0.00  0.00    +0.138 A 
ENDROOT
BRANCH   1  11
ATOM     11  N   UNL     1     -12.187   4.919 -17.123  0.00  0.00    -0.261 N 
ATOM     12  H   UNL     1     -12.864   4.861 -16.411  0.00  0.00    +0.170 HD
BRANCH  11  13
ATOM     13  N   UNL     1     -10.960   4.729 -16.972  0.00  0.00    -0.266 N 
ATOM     14  H   UNL     1     -10.276   5.437 -16.993  0.00  0.00    +0.170 HD
BRANCH  13  15
ATOM     15  C   UNL     1     -10.693   3.362 -16.769  0.00  0.00    +0.044 A 
ATOM     16  C   UNL     1     -10.124   2.534 -17.741  0.00  0.00    +0.025 A 
ATOM     17  C   UNL     1      -9.831   1.197 -17.448  0.00  0.00    +0.005 A 
ATOM     18  C   UNL     1     -10.123   0.665 -16.185  0.00  0.00    -0.050 A 
ATOM     19  C   UNL     1      -9.744  -0.743 -15.835  0.00  0.00    +0.044 C 
ATOM     20  C   UNL     1     -10.712   1.488 -15.220  0.00  0.00    +0.005 A 
ATOM     21  C   UNL     1     -11.000   2.820 -15.516  0.00  0.00    +0.025 A 
ENDBRANCH  13  15
ENDBRANCH  11  13
ENDBRANCH   1  11
BRANCH   2  22
ATOM     22  O   UNL     1     -11.457   7.393 -18.240  0.00  0.00    -0.505 OA
ATOM     23  H   UNL     1     -11.506   8.267 -18.657  0.00  0.00    +0.292 HD
ENDBRANCH   2  22
TORSDOF 4
ENDMDL
MODEL 4
REMARK VINA RESULT:      -6.7     15.067     16.989
REMARK  Name = min_compound973.pdb
REMARK  5 active torsions:
REMARK  status: ('A' for Active; 'I' for Inactive)
REMARK    1  A    between atoms: _1  and  _2
REMARK    2  A    between atoms: _1  and  _12
REMARK    3  A    between atoms: _2  and  _13
REMARK    4  A    between atoms: _11  and  _19
REMARK    5  A    between atoms: _18  and  _20
REMARK                            x       y       z     vdW  Elec       q    Type
REMARK                         _______ _______ _______ _____ _____    ______ ____
ROOT
ATOM      1  C   UNL     1     -12.950   5.611 -17.231  0.00  0.00    +0.115 A 
ATOM      2  C   UNL     1     -12.862   6.931 -17.720  0.00  0.00    +0.141 A 
ATOM      3  C   UNL     1     -13.939   7.816 -17.648  0.00  0.00    +0.049 A 
ATOM      4  C   UNL     1     -15.158   7.413 -17.091  0.00  0.00    +0.033 A 
ATOM      5  C   UNL     1     -15.234   6.096 -16.631  0.00  0.00    +0.088 A 
ATOM      6  N   UNL     1     -16.236   5.370 -16.047  0.00  0.00    -0.257 N 
ATOM      7  N   UNL     1     -15.853   4.115 -15.773  0.00  0.00    -0.067 NA
ATOM      8  N   UNL     1     -14.589   3.990 -16.160  0.00  0.00    -0.128 NA
ATOM      9  H   UNL     1     -17.178   5.654 -15.813  0.00  0.00    +0.191 HD
ATOM     10  C   UNL     1     -14.177   5.190 -16.689  0.00  0.00    +0.138 A 
ENDROOT
BRANCH   1  11
ATOM     11  N   UNL     1     -11.870   4.720 -17.296  0.00  0.00    -0.261 N 
ATOM     12  H   UNL     1     -11.005   4.839 -16.840  0.00  0.00    +0.170 HD
BRANCH  11  13
ATOM     13  N   UNL     1     -12.175   3.751 -18.026  0.00  0.00    -0.266 N 
ATOM     14  H   UNL     1     -12.702   3.817 -18.855  0.00  0.00    +0.170 HD
BRANCH  13  15
ATOM     15  C   UNL     1     -11.663   2.553 -17.496  0.00  0.00    +0.044 A 
ATOM     16  C   UNL     1     -11.826   1.305 -18.106  0.00  0.00    +0.025 A 
ATOM     17  C   UNL     1     -11.236   0.163 -17.552  0.00  0.00    +0.005 A 
ATOM     18  C   UNL     1     -10.493   0.250 -16.368  0.00  0.00    -0.050 A 
ATOM     19  C   UNL     1      -9.793  -0.952 -15.807  0.00  0.00    +0.044 C 
ATOM     20  C   UNL     1     -10.347   1.494 -15.746  0.00  0.00    +0.005 A 
ATOM     21  C   UNL     1     -10.936   2.630 -16.303  0.00  0.00    +0.025 A 
ENDBRANCH  13  15
ENDBRANCH  11  13
ENDBRANCH   1  11
BRANCH   2  22
ATOM     22  O   UNL     1     -11.678   7.349 -18.274  0.00  0.00    -0.505 OA
ATOM     23  H   UNL     1     -11.700   7.214 -19.234  0.00  0.00    +0.292 HD
ENDBRANCH   2  22
TORSDOF 4
ENDMDL
MODEL 5
REMARK VINA RESULT:      -6.7     14.818     17.052
REMARK  Name = min_compound973.pdb
REMARK  5 active torsions:
REMARK  status: ('A' for Active; 'I' for Inactive)
REMARK    1  A    between atoms: _1  and  _2
REMARK    2  A    between atoms: _1  and  _12
REMARK    3  A    between atoms: _2  and  _13
REMARK    4  A    between atoms: _11  and  _19
REMARK    5  A    between atoms: _18  and  _20
REMARK                            x       y       z     vdW  Elec       q    Type
REMARK                         _______ _______ _______ _____ _____    ______ ____
ROOT
ATOM      1  C   UNL     1     -14.103   5.114 -16.668  0.00  0.00    +0.115 A 
ATOM      2  C   UNL     1     -14.991   5.997 -16.022  0.00  0.00    +0.141 A 
ATOM      3  C   UNL     1     -15.059   7.350 -16.359  0.00  0.00    +0.049 A 
ATOM      4  C   UNL     1     -14.229   7.880 -17.354  0.00  0.00    +0.033 A 
ATOM      5  C   UNL     1     -13.340   6.995 -17.968  0.00  0.00    +0.088 A 
ATOM      6  N   UNL     1     -12.400   7.151 -18.950  0.00  0.00    -0.257 N 
ATOM      7  N   UNL     1     -11.763   6.003 -19.223  0.00  0.00    -0.067 NA
ATOM      8  N   UNL     1     -12.276   5.065 -18.434  0.00  0.00    -0.128 NA
ATOM      9  H   UNL     1     -12.145   7.984 -19.464  0.00  0.00    +0.191 HD
ATOM     10  C   UNL     1     -13.249   5.640 -17.653  0.00  0.00    +0.138 A 
ENDROOT
BRANCH   1  11
ATOM     11  N   UNL     1     -14.035   3.753 -16.336  0.00  0.00    -0.261 N 
ATOM     12  H   UNL     1     -14.629   3.051 -16.688  0.00  0.00    +0.170 HD
BRANCH  11  13
ATOM     13  N   UNL     1     -13.101   3.570 -15.524  0.00  0.00    -0.266 N 
ATOM     14  H   UNL     1     -12.904   4.154 -14.756  0.00  0.00    +0.170 HD
BRANCH  13  15
ATOM     15  C   UNL     1     -12.373   2.415 -15.860  0.00  0.00    +0.044 A 
ATOM     16  C   UNL     1     -12.911   1.344 -16.581  0.00  0.00    +0.025 A 
ATOM     17  C   UNL     1     -12.109   0.252 -16.932  0.00  0.00    +0.005 A 
ATOM     18  C   UNL     1     -10.763   0.207 -16.549  0.00  0.00    -0.050 A 
ATOM     19  C   UNL     1      -9.875  -0.921 -16.984  0.00  0.00    +0.044 C 
ATOM     20  C   UNL     1     -10.230   1.267 -15.809  0.00  0.00    +0.005 A 
ATOM     21  C   UNL     1     -11.033   2.354 -15.463  0.00  0.00    +0.025 A 
ENDBRANCH  13  15
ENDBRANCH  11  13
ENDBRANCH   1  11
BRANCH   2  22
ATOM     22  O   UNL     1     -15.814   5.502 -15.041  0.00  0.00    -0.505 OA
ATOM     23  H   UNL     1     -15.900   6.152 -14.327  0.00  0.00    +0.292 HD
ENDBRANCH   2  22
TORSDOF 4
ENDMDL
MODEL 6
REMARK VINA RESULT:      -6.6     13.764     15.241
REMARK  Name = min_compound973.pdb
REMARK  5 active torsions:
REMARK  status: ('A' for Active; 'I' for Inactive)
REMARK    1  A    between atoms: _1  and  _2
REMARK    2  A    between atoms: _1  and  _12
REMARK    3  A    between atoms: _2  and  _13
REMARK    4  A    between atoms: _11  and  _19
REMARK    5  A    between atoms: _18  and  _20
REMARK                            x       y       z     vdW  Elec       q    Type
REMARK                         _______ _______ _______ _____ _____    ______ ____
ROOT
ATOM      1  C   UNL     1     -15.226   3.538 -15.766  0.00  0.00    +0.115 A 
ATOM      2  C   UNL     1     -15.873   2.485 -15.088  0.00  0.00    +0.141 A 
ATOM      3  C   UNL     1     -16.776   2.723 -14.050  0.00  0.00    +0.049 A 
ATOM      4  C   UNL     1     -17.062   4.029 -13.639  0.00  0.00    +0.033 A 
ATOM      5  C   UNL     1     -16.395   5.059 -14.307  0.00  0.00    +0.088 A 
ATOM      6  N   UNL     1     -16.418   6.421 -14.178  0.00  0.00    -0.257 N 
ATOM      7  N   UNL     1     -15.593   7.022 -15.046  0.00  0.00    -0.067 NA
ATOM      8  N   UNL     1     -15.016   6.071 -15.772  0.00  0.00    -0.128 NA
ATOM      9  H   UNL     1     -16.955   6.993 -13.540  0.00  0.00    +0.191 HD
ATOM     10  C   UNL     1     -15.490   4.854 -15.346  0.00  0.00    +0.138 A 
ENDROOT
BRANCH   1  11
ATOM     11  N   UNL     1     -14.322   3.305 -16.813  0.00  0.00    -0.261 N 
ATOM     12  H   UNL     1     -14.559   2.958 -17.703  0.00  0.00    +0.170 HD
BRANCH  11  13
ATOM     13  N   UNL     1     -13.167   3.606 -16.438  0.00  0.00    -0.266 N 
ATOM     14  H   UNL     1     -12.867   4.519 -16.222  0.00  0.00    +0.170 HD
BRANCH  13  15
ATOM     15  C   UNL     1     -12.355   2.459 -16.368  0.00  0.00    +0.044 A 
ATOM     16  C   UNL     1     -12.594   1.298 -17.110  0.00  0.00    +0.025 A 
ATOM     17  C   UNL     1     -11.709   0.216 -17.035  0.00  0.00    +0.005 A 
ATOM     18  C   UNL     1     -10.585   0.273 -16.201  0.00  0.00    -0.050 A 
ATOM     19  C   UNL     1      -9.590  -0.849 -16.170  0.00  0.00    +0.044 C 
ATOM     20  C   UNL     1     -10.358   1.426 -15.443  0.00  0.00    +0.005 A 
ATOM     21  C   UNL     1     -11.242   2.503 -15.522  0.00  0.00    +0.025 A 
ENDBRANCH  13  15
ENDBRANCH  11  13
ENDBRANCH   1  11
BRANCH   2  22
ATOM     22  O   UNL     1     -15.607   1.194 -15.471  0.00  0.00    -0.505 OA
ATOM     23  H   UNL     1     -15.097   0.746 -14.779  0.00  0.00    +0.292 HD
ENDBRANCH   2  22
TORSDOF 4
ENDMDL
MODEL 7
REMARK VINA RESULT:      -6.6     15.001     16.699
REMARK  Name = min_compound973.pdb
REMARK  5 active torsions:
REMARK  status: ('A' for Active; 'I' for Inactive)
REMARK    1  A    between atoms: _1  and  _2
REMARK    2  A    between atoms: _1  and  _12
REMARK    3  A    between atoms: _2  and  _13
REMARK    4  A    between atoms: _11  and  _19
REMARK    5  A    between atoms: _18  and  _20
REMARK                            x       y       z     vdW  Elec       q    Type
REMARK                         _______ _______ _______ _____ _____    ______ ____
ROOT
ATOM      1  C   UNL     1     -14.052   5.094 -16.861  0.00  0.00    +0.115 A 
ATOM      2  C   UNL     1     -13.195   5.678 -17.816  0.00  0.00    +0.141 A 
ATOM      3  C   UNL     1     -13.223   7.046 -18.091  0.00  0.00    +0.049 A 
ATOM      4  C   UNL     1     -14.121   7.890 -17.427  0.00  0.00    +0.033 A 
ATOM      5  C   UNL     1     -14.978   7.290 -16.500  0.00  0.00    +0.088 A 
ATOM      6  N   UNL     1     -15.962   7.783 -15.687  0.00  0.00    -0.257 N 
ATOM      7  N   UNL     1     -16.537   6.820 -14.954  0.00  0.00    -0.067 NA
ATOM      8  N   UNL     1     -15.938   5.674 -15.260  0.00  0.00    -0.128 NA
ATOM      9  H   UNL     1     -16.286   8.735 -15.582  0.00  0.00    +0.191 HD
ATOM     10  C   UNL     1     -14.973   5.929 -16.204  0.00  0.00    +0.138 A 
ENDROOT
BRANCH   1  11
ATOM     11  N   UNL     1     -14.024   3.721 -16.578  0.00  0.00    -0.261 N 
ATOM     12  H   UNL     1     -14.524   3.028 -17.068  0.00  0.00    +0.170 HD
BRANCH  11  13
ATOM     13  N   UNL     1     -13.265   3.514 -15.605  0.00  0.00    -0.266 N 
ATOM     14  H   UNL     1     -13.288   4.017 -14.759  0.00  0.00    +0.170 HD
BRANCH  13  15
ATOM     15  C   UNL     1     -12.375   2.463 -15.888  0.00  0.00    +0.044 A 
ATOM     16  C   UNL     1     -11.027   2.471 -15.516  0.00  0.00    +0.025 A 
ATOM     17  C   UNL     1     -10.213   1.362 -15.779  0.00  0.00    +0.005 A 
ATOM     18  C   UNL     1     -10.732   0.239 -16.435  0.00  0.00    -0.050 A 
ATOM     19  C   UNL     1      -9.892  -0.983 -16.654  0.00  0.00    +0.044 C 
ATOM     20  C   UNL     1     -12.075   0.240 -16.826  0.00  0.00    +0.005 A 
ATOM     21  C   UNL     1     -12.882   1.346 -16.561  0.00  0.00    +0.025 A 
ENDBRANCH  13  15
ENDBRANCH  11  13
ENDBRANCH   1  11
BRANCH   2  22
ATOM     22  O   UNL     1     -12.307   4.872 -18.484  0.00  0.00    -0.505 OA
ATOM     23  H   UNL     1     -12.619   3.954 -18.463  0.00  0.00    +0.292 HD
ENDBRANCH   2  22
TORSDOF 4
ENDMDL
MODEL 8
REMARK VINA RESULT:      -6.5      3.286      3.998
REMARK  Name = min_compound973.pdb
REMARK  5 active torsions:
REMARK  status: ('A' for Active; 'I' for Inactive)
REMARK    1  A    between atoms: _1  and  _2
REMARK    2  A    between atoms: _1  and  _12
REMARK    3  A    between atoms: _2  and  _13
REMARK    4  A    between atoms: _11  and  _19
REMARK    5  A    between atoms: _18  and  _20
REMARK                            x       y       z     vdW  Elec       q    Type
REMARK                         _______ _______ _______ _____ _____    ______ ____
ROOT
ATOM      1  C   UNL     1     -15.154  -1.585  -3.364  0.00  0.00    +0.115 A 
ATOM      2  C   UNL     1     -16.194  -0.735  -2.935  0.00  0.00    +0.141 A 
ATOM      3  C   UNL     1     -17.046  -1.085  -1.886  0.00  0.00    +0.049 A 
ATOM      4  C   UNL     1     -16.898  -2.310  -1.226  0.00  0.00    +0.033 A 
ATOM      5  C   UNL     1     -15.877  -3.149  -1.678  0.00  0.00    +0.088 A 
ATOM      6  N   UNL     1     -15.449  -4.389  -1.288  0.00  0.00    -0.257 N 
ATOM      7  N   UNL     1     -14.417  -4.819  -2.027  0.00  0.00    -0.067 NA
ATOM      8  N   UNL     1     -14.135  -3.869  -2.911  0.00  0.00    -0.128 NA
ATOM      9  H   UNL     1     -15.803  -4.984  -0.550  0.00  0.00    +0.191 HD
ATOM     10  C   UNL     1     -15.011  -2.827  -2.721  0.00  0.00    +0.138 A 
ENDROOT
BRANCH   1  11
ATOM     11  N   UNL     1     -14.293  -1.236  -4.414  0.00  0.00    -0.261 N 
ATOM     12  H   UNL     1     -13.521  -0.630  -4.340  0.00  0.00    +0.170 HD
BRANCH  11  13
ATOM     13  N   UNL     1     -14.660  -1.815  -5.461  0.00  0.00    -0.266 N 
ATOM     14  H   UNL     1     -14.615  -2.788  -5.609  0.00  0.00    +0.170 HD
BRANCH  13  15
ATOM     15  C   UNL     1     -15.144  -0.884  -6.397  0.00  0.00    +0.044 A 
ATOM     16  C   UNL     1     -16.290  -1.090  -7.170  0.00  0.00    +0.025 A 
ATOM     17  C   UNL     1     -16.747  -0.093  -8.040  0.00  0.00    +0.005 A 
ATOM     18  C   UNL     1     -16.052   1.117  -8.162  0.00  0.00    -0.050 A 
ATOM     19  C   UNL     1     -16.573   2.222  -9.031  0.00  0.00    +0.044 C 
ATOM     20  C   UNL     1     -14.893   1.315  -7.405  0.00  0.00    +0.005 A 
ATOM     21  C   UNL     1     -14.442   0.318  -6.539  0.00  0.00    +0.025 A 
ENDBRANCH  13  15
ENDBRANCH  11  13
ENDBRANCH   1  11
BRANCH   2  22
ATOM     22  O   UNL     1     -16.361   0.471  -3.569  0.00  0.00    -0.505 OA
ATOM     23  H   UNL     1     -17.223   0.491  -4.013  0.00  0.00    +0.292 HD
ENDBRANCH   2  22
TORSDOF 4
ENDMDL
MODEL 9
REMARK VINA RESULT:      -6.4      4.990      7.086
REMARK  Name = min_compound973.pdb
REMARK  5 active torsions:
REMARK  status: ('A' for Active; 'I' for Inactive)
REMARK    1  A    between atoms: _1  and  _2
REMARK    2  A    between atoms: _1  and  _12
REMARK    3  A    between atoms: _2  and  _13
REMARK    4  A    between atoms: _11  and  _19
REMARK    5  A    between atoms: _18  and  _20
REMARK                            x       y       z     vdW  Elec       q    Type
REMARK                         _______ _______ _______ _____ _____    ______ ____
ROOT
ATOM      1  C   UNL     1     -16.010   1.887  -5.289  0.00  0.00    +0.115 A 
ATOM      2  C   UNL     1     -15.391   2.655  -4.282  0.00  0.00    +0.141 A 
ATOM      3  C   UNL     1     -14.209   2.242  -3.663  0.00  0.00    +0.049 A 
ATOM      4  C   UNL     1     -13.601   1.033  -4.021  0.00  0.00    +0.033 A 
ATOM      5  C   UNL     1     -14.241   0.275  -5.005  0.00  0.00    +0.088 A 
ATOM      6  N   UNL     1     -13.950  -0.928  -5.589  0.00  0.00    -0.257 N 
ATOM      7  N   UNL     1     -14.868  -1.278  -6.501  0.00  0.00    -0.067 NA
ATOM      8  N   UNL     1     -15.777  -0.311  -6.545  0.00  0.00    -0.128 NA
ATOM      9  H   UNL     1     -13.168  -1.547  -5.422  0.00  0.00    +0.191 HD
ATOM     10  C   UNL     1     -15.419   0.660  -5.640  0.00  0.00    +0.138 A 
ENDROOT
BRANCH   1  11
ATOM     11  N   UNL     1     -17.194   2.300  -5.917  0.00  0.00    -0.261 N 
ATOM     12  H   UNL     1     -18.043   1.800  -5.918  0.00  0.00    +0.170 HD
BRANCH  11  13
ATOM     13  N   UNL     1     -17.003   3.402  -6.477  0.00  0.00    -0.266 N 
ATOM     14  H   UNL     1     -16.695   4.218  -6.019  0.00  0.00    +0.170 HD
BRANCH  13  15
ATOM     15  C   UNL     1     -17.292   3.315  -7.851  0.00  0.00    +0.044 A 
ATOM     16  C   UNL     1     -18.580   3.451  -8.380  0.00  0.00    +0.025 A 
ATOM     17  C   UNL     1     -18.784   3.412  -9.764  0.00  0.00    +0.005 A 
ATOM     18  C   UNL     1     -17.706   3.216 -10.637  0.00  0.00    -0.050 A 
ATOM     19  C   UNL     1     -17.902   3.249 -12.123  0.00  0.00    +0.044 C 
ATOM     20  C   UNL     1     -16.422   3.059 -10.107  0.00  0.00    +0.005 A 
ATOM     21  C   UNL     1     -16.223   3.100  -8.726  0.00  0.00    +0.025 A 
ENDBRANCH  13  15
ENDBRANCH  11  13
ENDBRANCH   1  11
BRANCH   2  22
ATOM     22  O   UNL     1     -15.969   3.843  -3.912  0.00  0.00    -0.505 OA
ATOM     23  H   UNL     1     -15.303   4.548  -3.920  0.00  0.00    +0.292 HD
ENDBRANCH   2  22
TORSDOF 4
ENDMDL
