MODEL 1
REMARK VINA RESULT:      -7.2      0.000      0.000
REMARK  Name = min_compound963.pdb
REMARK  3 active torsions:
REMARK  status: ('A' for Active; 'I' for Inactive)
REMARK    1  A    between atoms: _7  and  _9
REMARK    2  A    between atoms: _11  and  _18
REMARK    3  A    between atoms: _15  and  _16
REMARK                            x       y       z     vdW  Elec       q    Type
REMARK                         _______ _______ _______ _____ _____    ______ ____
ROOT
ATOM      1  C   UNL     1     -14.931   1.017  -6.558  0.00  0.00    +0.250 C 
ATOM      2  N   UNL     1     -16.222   1.424  -6.828  0.00  0.00    -0.281 N 
ATOM      3  H   UNL     1     -16.925   1.215  -6.131  0.00  0.00    +0.155 HD
ATOM      4  O   UNL     1     -13.973   1.197  -7.305  0.00  0.00    -0.270 OA
ENDROOT
BRANCH   1  10
ATOM      5 CL   UNL     1     -14.047  -2.279  -1.567  0.00  0.00    -0.083 Cl
ATOM      6  C   UNL     1     -14.287  -1.309  -2.966  0.00  0.00    +0.042 A 
ATOM      7  C   UNL     1     -14.033   0.058  -2.914  0.00  0.00    +0.040 A 
ATOM      8  C   UNL     1     -14.224   0.863  -4.049  0.00  0.00    +0.054 A 
ATOM      9 CL   UNL     1     -13.865   2.541  -3.822  0.00  0.00    -0.083 Cl
ATOM     10  C   UNL     1     -14.676   0.299  -5.257  0.00  0.00    +0.055 A 
ATOM     11  C   UNL     1     -14.924  -1.092  -5.275  0.00  0.00    +0.016 A 
ATOM     12  C   UNL     1     -14.732  -1.891  -4.144  0.00  0.00    +0.021 A 
ENDBRANCH   1  10
BRANCH   2  13
ATOM     13  C   UNL     1     -16.700   2.106  -7.969  0.00  0.00    +0.035 A 
ATOM     14  C   UNL     1     -18.078   2.029  -8.220  0.00  0.00    +0.023 A 
ATOM     15  C   UNL     1     -18.642   2.672  -9.325  0.00  0.00    +0.003 A 
ATOM     16  C   UNL     1     -17.832   3.400 -10.192  0.00  0.00    +0.017 A 
ATOM     17  C   UNL     1     -16.460   3.484  -9.953  0.00  0.00    +0.026 A 
ATOM     18  C   UNL     1     -15.896   2.839  -8.845  0.00  0.00    +0.040 A 
BRANCH  17  19
ATOM     19  C   UNL     1     -15.627   4.233 -10.845  0.00  0.00    -0.070 C 
ATOM     20  C   UNL     1     -14.930   4.862 -11.594  0.00  0.00    +0.009 C 
ENDBRANCH  17  19
ENDBRANCH   2  13
TORSDOF 3
ENDMDL
MODEL 2
REMARK VINA RESULT:      -7.2      8.056     10.348
REMARK  Name = min_compound963.pdb
REMARK  3 active torsions:
REMARK  status: ('A' for Active; 'I' for Inactive)
REMARK    1  A    between atoms: _7  and  _9
REMARK    2  A    between atoms: _11  and  _18
REMARK    3  A    between atoms: _15  and  _16
REMARK                            x       y       z     vdW  Elec       q    Type
REMARK                         _______ _______ _______ _____ _____    ______ ____
ROOT
ATOM      1  C   UNL     1     -14.873   3.287 -15.414  0.00  0.00    +0.250 C 
ATOM      2  N   UNL     1     -13.573   3.572 -15.050  0.00  0.00    -0.281 N 
ATOM      3  H   UNL     1     -13.440   4.101 -14.197  0.00  0.00    +0.155 HD
ATOM      4  O   UNL     1     -15.193   2.657 -16.418  0.00  0.00    -0.270 OA
ENDROOT
BRANCH   1  10
ATOM      5 CL   UNL     1     -19.386   4.802 -11.685  0.00  0.00    -0.083 Cl
ATOM      6  C   UNL     1     -18.098   4.410 -12.756  0.00  0.00    +0.042 A 
ATOM      7  C   UNL     1     -17.464   5.418 -13.476  0.00  0.00    +0.040 A 
ATOM      8  C   UNL     1     -16.411   5.112 -14.354  0.00  0.00    +0.054 A 
ATOM      9 CL   UNL     1     -15.727   6.475 -15.175  0.00  0.00    -0.083 Cl
ATOM     10  C   UNL     1     -15.981   3.783 -14.519  0.00  0.00    +0.055 A 
ATOM     11  C   UNL     1     -16.646   2.784 -13.772  0.00  0.00    +0.016 A 
ATOM     12  C   UNL     1     -17.694   3.091 -12.899  0.00  0.00    +0.021 A 
ENDBRANCH   1  10
BRANCH   2  13
ATOM     13  C   UNL     1     -12.382   3.218 -15.722  0.00  0.00    +0.035 A 
ATOM     14  C   UNL     1     -11.770   4.216 -16.494  0.00  0.00    +0.023 A 
ATOM     15  C   UNL     1     -10.590   3.959 -17.194  0.00  0.00    +0.003 A 
ATOM     16  C   UNL     1     -10.006   2.696 -17.130  0.00  0.00    +0.017 A 
ATOM     17  C   UNL     1     -10.605   1.694 -16.365  0.00  0.00    +0.026 A 
ATOM     18  C   UNL     1     -11.789   1.955 -15.664  0.00  0.00    +0.040 A 
BRANCH  17  19
ATOM     19  C   UNL     1     -10.005   0.395 -16.299  0.00  0.00    -0.070 C 
ATOM     20  C   UNL     1      -9.500  -0.693 -16.243  0.00  0.00    +0.009 C 
ENDBRANCH  17  19
ENDBRANCH   2  13
TORSDOF 3
ENDMDL
MODEL 3
REMARK VINA RESULT:      -7.1      2.189      2.883
REMARK  Name = min_compound963.pdb
REMARK  3 active torsions:
REMARK  status: ('A' for Active; 'I' for Inactive)
REMARK    1  A    between atoms: _7  and  _9
REMARK    2  A    between atoms: _11  and  _18
REMARK    3  A    between atoms: _15  and  _16
REMARK                            x       y       z     vdW  Elec       q    Type
REMARK                         _______ _______ _______ _____ _____    ______ ____
ROOT
ATOM      1  C   UNL     1     -16.569   1.525  -8.022  0.00  0.00    +0.250 C 
ATOM      2  N   UNL     1     -16.596   2.715  -8.720  0.00  0.00    -0.281 N 
ATOM      3  H   UNL     1     -16.090   3.494  -8.320  0.00  0.00    +0.155 HD
ATOM      4  O   UNL     1     -17.133   0.494  -8.379  0.00  0.00    -0.270 OA
ENDROOT
BRANCH   1  10
ATOM      5 CL   UNL     1     -13.134   1.065  -3.068  0.00  0.00    -0.083 Cl
ATOM      6  C   UNL     1     -14.136   1.220  -4.456  0.00  0.00    +0.042 A 
ATOM      7  C   UNL     1     -15.292   1.992  -4.395  0.00  0.00    +0.040 A 
ATOM      8  C   UNL     1     -16.120   2.127  -5.521  0.00  0.00    +0.054 A 
ATOM      9 CL   UNL     1     -17.518   3.121  -5.283  0.00  0.00    -0.083 Cl
ATOM     10  C   UNL     1     -15.794   1.483  -6.729  0.00  0.00    +0.055 A 
ATOM     11  C   UNL     1     -14.613   0.707  -6.757  0.00  0.00    +0.016 A 
ATOM     12  C   UNL     1     -13.791   0.574  -5.634  0.00  0.00    +0.021 A 
ENDBRANCH   1  10
BRANCH   2  13
ATOM     13  C   UNL     1     -17.248   2.993  -9.942  0.00  0.00    +0.035 A 
ATOM     14  C   UNL     1     -18.515   3.591  -9.861  0.00  0.00    +0.023 A 
ATOM     15  C   UNL     1     -19.235   3.903 -11.016  0.00  0.00    +0.003 A 
ATOM     16  C   UNL     1     -18.696   3.621 -12.268  0.00  0.00    +0.017 A 
ATOM     17  C   UNL     1     -17.437   3.026 -12.362  0.00  0.00    +0.026 A 
ATOM     18  C   UNL     1     -16.716   2.714 -11.203  0.00  0.00    +0.040 A 
BRANCH  17  19
ATOM     19  C   UNL     1     -16.882   2.736 -13.650  0.00  0.00    -0.070 C 
ATOM     20  C   UNL     1     -16.416   2.491 -14.729  0.00  0.00    +0.009 C 
ENDBRANCH  17  19
ENDBRANCH   2  13
TORSDOF 3
ENDMDL
MODEL 4
REMARK VINA RESULT:      -7.1      7.798     10.159
REMARK  Name = min_compound963.pdb
REMARK  3 active torsions:
REMARK  status: ('A' for Active; 'I' for Inactive)
REMARK    1  A    between atoms: _7  and  _9
REMARK    2  A    between atoms: _11  and  _18
REMARK    3  A    between atoms: _15  and  _16
REMARK                            x       y       z     vdW  Elec       q    Type
REMARK                         _______ _______ _______ _____ _____    ______ ____
ROOT
ATOM      1  C   UNL     1     -13.261   3.775 -15.831  0.00  0.00    +0.250 C 
ATOM      2  N   UNL     1     -14.001   3.545 -14.690  0.00  0.00    -0.281 N 
ATOM      3  H   UNL     1     -13.859   2.660 -14.220  0.00  0.00    +0.155 HD
ATOM      4  O   UNL     1     -13.324   4.798 -16.508  0.00  0.00    -0.270 OA
ENDROOT
BRANCH   1  10
ATOM      5 CL   UNL     1      -9.824  -0.852 -17.659  0.00  0.00    -0.083 Cl
ATOM      6  C   UNL     1     -10.769   0.488 -17.138  0.00  0.00    +0.042 A 
ATOM      7  C   UNL     1     -10.160   1.716 -16.904  0.00  0.00    +0.040 A 
ATOM      8  C   UNL     1     -10.919   2.819 -16.478  0.00  0.00    +0.054 A 
ATOM      9 CL   UNL     1     -10.014   4.275 -16.230  0.00  0.00    -0.083 Cl
ATOM     10  C   UNL     1     -12.307   2.698 -16.282  0.00  0.00    +0.055 A 
ATOM     11  C   UNL     1     -12.893   1.436 -16.530  0.00  0.00    +0.016 A 
ATOM     12  C   UNL     1     -12.136   0.341 -16.953  0.00  0.00    +0.021 A 
ENDBRANCH   1  10
BRANCH   2  13
ATOM     13  C   UNL     1     -14.949   4.396 -14.079  0.00  0.00    +0.035 A 
ATOM     14  C   UNL     1     -15.752   5.165 -14.935  0.00  0.00    +0.023 A 
ATOM     15  C   UNL     1     -16.716   6.036 -14.423  0.00  0.00    +0.003 A 
ATOM     16  C   UNL     1     -16.890   6.146 -13.046  0.00  0.00    +0.017 A 
ATOM     17  C   UNL     1     -16.098   5.386 -12.184  0.00  0.00    +0.026 A 
ATOM     18  C   UNL     1     -15.132   4.514 -12.700  0.00  0.00    +0.040 A 
BRANCH  17  19
ATOM     19  C   UNL     1     -16.277   5.500 -10.768  0.00  0.00    -0.070 C 
ATOM     20  C   UNL     1     -16.425   5.595  -9.580  0.00  0.00    +0.009 C 
ENDBRANCH  17  19
ENDBRANCH   2  13
TORSDOF 3
ENDMDL
MODEL 5
REMARK VINA RESULT:      -7.0     10.678     11.225
REMARK  Name = min_compound963.pdb
REMARK  3 active torsions:
REMARK  status: ('A' for Active; 'I' for Inactive)
REMARK    1  A    between atoms: _7  and  _9
REMARK    2  A    between atoms: _11  and  _18
REMARK    3  A    between atoms: _15  and  _16
REMARK                            x       y       z     vdW  Elec       q    Type
REMARK                         _______ _______ _______ _____ _____    ______ ____
ROOT
ATOM      1  C   UNL     1     -13.398   3.737 -16.433  0.00  0.00    +0.250 C 
ATOM      2  N   UNL     1     -13.135   4.766 -17.315  0.00  0.00    -0.281 N 
ATOM      3  H   UNL     1     -12.277   4.707 -17.849  0.00  0.00    +0.155 HD
ATOM      4  O   UNL     1     -14.395   3.668 -15.720  0.00  0.00    -0.270 OA
ENDROOT
BRANCH   1  10
ATOM      5 CL   UNL     1      -9.728  -1.061 -16.182  0.00  0.00    -0.083 Cl
ATOM      6  C   UNL     1     -10.741   0.327 -16.242  0.00  0.00    +0.042 A 
ATOM      7  C   UNL     1     -10.220   1.579 -15.930  0.00  0.00    +0.040 A 
ATOM      8  C   UNL     1     -11.036   2.721 -15.975  0.00  0.00    +0.054 A 
ATOM      9 CL   UNL     1     -10.240   4.202 -15.559  0.00  0.00    -0.083 Cl
ATOM     10  C   UNL     1     -12.392   2.618 -16.336  0.00  0.00    +0.055 A 
ATOM     11  C   UNL     1     -12.888   1.331 -16.648  0.00  0.00    +0.016 A 
ATOM     12  C   UNL     1     -12.074   0.196 -16.602  0.00  0.00    +0.021 A 
ENDBRANCH   1  10
BRANCH   2  13
ATOM     13  C   UNL     1     -13.920   5.910 -17.577  0.00  0.00    +0.035 A 
ATOM     14  C   UNL     1     -14.297   6.127 -18.911  0.00  0.00    +0.023 A 
ATOM     15  C   UNL     1     -15.074   7.232 -19.266  0.00  0.00    +0.003 A 
ATOM     16  C   UNL     1     -15.482   8.136 -18.289  0.00  0.00    +0.017 A 
ATOM     17  C   UNL     1     -15.114   7.932 -16.959  0.00  0.00    +0.026 A 
ATOM     18  C   UNL     1     -14.335   6.823 -16.605  0.00  0.00    +0.040 A 
BRANCH  17  19
ATOM     19  C   UNL     1     -15.534   8.861 -15.954  0.00  0.00    -0.070 C 
ATOM     20  C   UNL     1     -15.886   9.642 -15.113  0.00  0.00    +0.009 C 
ENDBRANCH  17  19
ENDBRANCH   2  13
TORSDOF 3
ENDMDL
MODEL 6
REMARK VINA RESULT:      -6.9      8.489      9.987
REMARK  Name = min_compound963.pdb
REMARK  3 active torsions:
REMARK  status: ('A' for Active; 'I' for Inactive)
REMARK    1  A    between atoms: _7  and  _9
REMARK    2  A    between atoms: _11  and  _18
REMARK    3  A    between atoms: _15  and  _16
REMARK                            x       y       z     vdW  Elec       q    Type
REMARK                         _______ _______ _______ _____ _____    ______ ____
ROOT
ATOM      1  C   UNL     1     -13.586   3.663 -15.777  0.00  0.00    +0.250 C 
ATOM      2  N   UNL     1     -14.093   3.743 -14.496  0.00  0.00    -0.281 N 
ATOM      3  H   UNL     1     -13.751   3.070 -13.823  0.00  0.00    +0.155 HD
ATOM      4  O   UNL     1     -13.903   4.407 -16.701  0.00  0.00    -0.270 OA
ENDROOT
BRANCH   1  10
ATOM      5 CL   UNL     1      -9.895  -0.957 -17.039  0.00  0.00    -0.083 Cl
ATOM      6  C   UNL     1     -10.913   0.380 -16.673  0.00  0.00    +0.042 A 
ATOM      7  C   UNL     1     -10.351   1.596 -16.298  0.00  0.00    +0.040 A 
ATOM      8  C   UNL     1     -11.170   2.697 -15.995  0.00  0.00    +0.054 A 
ATOM      9 CL   UNL     1     -10.319   4.137 -15.546  0.00  0.00    -0.083 Cl
ATOM     10  C   UNL     1     -12.571   2.586 -16.067  0.00  0.00    +0.055 A 
ATOM     11  C   UNL     1     -13.108   1.337 -16.451  0.00  0.00    +0.016 A 
ATOM     12  C   UNL     1     -12.291   0.243 -16.751  0.00  0.00    +0.021 A 
ENDBRANCH   1  10
BRANCH   2  13
ATOM     13  C   UNL     1     -15.044   4.658 -13.992  0.00  0.00    +0.035 A 
ATOM     14  C   UNL     1     -15.889   4.194 -12.972  0.00  0.00    +0.023 A 
ATOM     15  C   UNL     1     -16.860   5.026 -12.412  0.00  0.00    +0.003 A 
ATOM     16  C   UNL     1     -16.998   6.335 -12.865  0.00  0.00    +0.017 A 
ATOM     17  C   UNL     1     -16.164   6.809 -13.879  0.00  0.00    +0.026 A 
ATOM     18  C   UNL     1     -15.191   5.973 -14.440  0.00  0.00    +0.040 A 
BRANCH  17  19
ATOM     19  C   UNL     1     -16.306   8.155 -14.345  0.00  0.00    -0.070 C 
ATOM     20  C   UNL     1     -16.423   9.285 -14.735  0.00  0.00    +0.009 C 
ENDBRANCH  17  19
ENDBRANCH   2  13
TORSDOF 3
ENDMDL
MODEL 7
REMARK VINA RESULT:      -6.9      4.863      6.276
REMARK  Name = min_compound963.pdb
REMARK  3 active torsions:
REMARK  status: ('A' for Active; 'I' for Inactive)
REMARK    1  A    between atoms: _7  and  _9
REMARK    2  A    between atoms: _11  and  _18
REMARK    3  A    between atoms: _15  and  _16
REMARK                            x       y       z     vdW  Elec       q    Type
REMARK                         _______ _______ _______ _____ _____    ______ ____
ROOT
ATOM      1  C   UNL     1     -15.217  -2.066  -2.035  0.00  0.00    +0.250 C 
ATOM      2  N   UNL     1     -14.463  -1.303  -2.903  0.00  0.00    -0.281 N 
ATOM      3  H   UNL     1     -13.696  -1.766  -3.375  0.00  0.00    +0.155 HD
ATOM      4  O   UNL     1     -16.176  -1.648  -1.392  0.00  0.00    -0.270 OA
ENDROOT
BRANCH   1  10
ATOM      5 CL   UNL     1     -13.249  -7.726  -1.228  0.00  0.00    -0.083 Cl
ATOM      6  C   UNL     1     -13.845  -6.131  -1.467  0.00  0.00    +0.042 A 
ATOM      7  C   UNL     1     -15.175  -5.934  -1.827  0.00  0.00    +0.040 A 
ATOM      8  C   UNL     1     -15.676  -4.637  -2.025  0.00  0.00    +0.054 A 
ATOM      9 CL   UNL     1     -17.347  -4.560  -2.469  0.00  0.00    -0.083 Cl
ATOM     10  C   UNL     1     -14.841  -3.516  -1.862  0.00  0.00    +0.055 A 
ATOM     11  C   UNL     1     -13.496  -3.752  -1.496  0.00  0.00    +0.016 A 
ATOM     12  C   UNL     1     -13.001  -5.044  -1.299  0.00  0.00    +0.021 A 
ENDBRANCH   1  10
BRANCH   2  13
ATOM     13  C   UNL     1     -14.622   0.063  -3.225  0.00  0.00    +0.035 A 
ATOM     14  C   UNL     1     -13.456   0.842  -3.270  0.00  0.00    +0.023 A 
ATOM     15  C   UNL     1     -13.514   2.202  -3.580  0.00  0.00    +0.003 A 
ATOM     16  C   UNL     1     -14.742   2.801  -3.850  0.00  0.00    +0.017 A 
ATOM     17  C   UNL     1     -15.909   2.037  -3.809  0.00  0.00    +0.026 A 
ATOM     18  C   UNL     1     -15.848   0.673  -3.498  0.00  0.00    +0.040 A 
BRANCH  17  19
ATOM     19  C   UNL     1     -17.172   2.652  -4.086  0.00  0.00    -0.070 C 
ATOM     20  C   UNL     1     -18.232   3.167  -4.317  0.00  0.00    +0.009 C 
ENDBRANCH  17  19
ENDBRANCH   2  13
TORSDOF 3
ENDMDL
MODEL 8
REMARK VINA RESULT:      -6.7      3.565      5.249
REMARK  Name = min_compound963.pdb
REMARK  3 active torsions:
REMARK  status: ('A' for Active; 'I' for Inactive)
REMARK    1  A    between atoms: _7  and  _9
REMARK    2  A    between atoms: _11  and  _18
REMARK    3  A    between atoms: _15  and  _16
REMARK                            x       y       z     vdW  Elec       q    Type
REMARK                         _______ _______ _______ _____ _____    ______ ____
ROOT
ATOM      1  C   UNL     1     -15.048  -2.033  -3.059  0.00  0.00    +0.250 C 
ATOM      2  N   UNL     1     -14.847  -2.062  -4.424  0.00  0.00    -0.281 N 
ATOM      3  H   UNL     1     -14.516  -2.932  -4.822  0.00  0.00    +0.155 HD
ATOM      4  O   UNL     1     -15.445  -1.054  -2.433  0.00  0.00    -0.270 OA
ENDROOT
BRANCH   1  10
ATOM      5 CL   UNL     1     -13.433  -6.908   0.133  0.00  0.00    -0.083 Cl
ATOM      6  C   UNL     1     -13.929  -5.537  -0.778  0.00  0.00    +0.042 A 
ATOM      7  C   UNL     1     -15.235  -5.454  -1.251  0.00  0.00    +0.040 A 
ATOM      8  C   UNL     1     -15.655  -4.340  -1.997  0.00  0.00    +0.054 A 
ATOM      9 CL   UNL     1     -17.308  -4.388  -2.511  0.00  0.00    -0.083 Cl
ATOM     10  C   UNL     1     -14.761  -3.291  -2.278  0.00  0.00    +0.055 A 
ATOM     11  C   UNL     1     -13.442  -3.407  -1.783  0.00  0.00    +0.016 A 
ATOM     12  C   UNL     1     -13.027  -4.516  -1.041  0.00  0.00    +0.021 A 
ENDBRANCH   1  10
BRANCH   2  13
ATOM     13  C   UNL     1     -15.045  -1.019  -5.356  0.00  0.00    +0.035 A 
ATOM     14  C   UNL     1     -13.919  -0.255  -5.699  0.00  0.00    +0.023 A 
ATOM     15  C   UNL     1     -14.018   0.797  -6.612  0.00  0.00    +0.003 A 
ATOM     16  C   UNL     1     -15.247   1.098  -7.194  0.00  0.00    +0.017 A 
ATOM     17  C   UNL     1     -16.374   0.346  -6.860  0.00  0.00    +0.026 A 
ATOM     18  C   UNL     1     -16.273  -0.709  -5.945  0.00  0.00    +0.040 A 
BRANCH  17  19
ATOM     19  C   UNL     1     -17.638   0.656  -7.458  0.00  0.00    -0.070 C 
ATOM     20  C   UNL     1     -18.698   0.916  -7.958  0.00  0.00    +0.009 C 
ENDBRANCH  17  19
ENDBRANCH   2  13
TORSDOF 3
ENDMDL
MODEL 9
REMARK VINA RESULT:      -6.7     10.771     11.614
REMARK  Name = min_compound963.pdb
REMARK  3 active torsions:
REMARK  status: ('A' for Active; 'I' for Inactive)
REMARK    1  A    between atoms: _7  and  _9
REMARK    2  A    between atoms: _11  and  _18
REMARK    3  A    between atoms: _15  and  _16
REMARK                            x       y       z     vdW  Elec       q    Type
REMARK                         _______ _______ _______ _____ _____    ______ ____
ROOT
ATOM      1  C   UNL     1     -13.365   3.633 -16.711  0.00  0.00    +0.250 C 
ATOM      2  N   UNL     1     -12.986   4.721 -17.471  0.00  0.00    -0.281 N 
ATOM      3  H   UNL     1     -12.043   4.720 -17.838  0.00  0.00    +0.155 HD
ATOM      4  O   UNL     1     -14.473   3.492 -16.200  0.00  0.00    -0.270 OA
ENDROOT
BRANCH   1  10
ATOM      5 CL   UNL     1      -9.638  -1.072 -15.985  0.00  0.00    -0.083 Cl
ATOM      6  C   UNL     1     -10.669   0.291 -16.178  0.00  0.00    +0.042 A 
ATOM      7  C   UNL     1     -10.206   1.562 -15.852  0.00  0.00    +0.040 A 
ATOM      8  C   UNL     1     -11.037   2.684 -16.005  0.00  0.00    +0.054 A 
ATOM      9 CL   UNL     1     -10.315   4.193 -15.557  0.00  0.00    -0.083 Cl
ATOM     10  C   UNL     1     -12.350   2.540 -16.489  0.00  0.00    +0.055 A 
ATOM     11  C   UNL     1     -12.788   1.235 -16.811  0.00  0.00    +0.016 A 
ATOM     12  C   UNL     1     -11.959   0.120 -16.658  0.00  0.00    +0.021 A 
ENDBRANCH   1  10
BRANCH   2  13
ATOM     13  C   UNL     1     -13.755   5.856 -17.812  0.00  0.00    +0.035 A 
ATOM     14  C   UNL     1     -13.973   6.800 -16.797  0.00  0.00    +0.023 A 
ATOM     15  C   UNL     1     -14.721   7.953 -17.041  0.00  0.00    +0.003 A 
ATOM     16  C   UNL     1     -15.261   8.178 -18.305  0.00  0.00    +0.017 A 
ATOM     17  C   UNL     1     -15.050   7.246 -19.323  0.00  0.00    +0.026 A 
ATOM     18  C   UNL     1     -14.300   6.090 -19.077  0.00  0.00    +0.040 A 
BRANCH  17  19
ATOM     19  C   UNL     1     -15.605   7.477 -20.623  0.00  0.00    -0.070 C 
ATOM     20  C   UNL     1     -16.072   7.670 -21.712  0.00  0.00    +0.009 C 
ENDBRANCH  17  19
ENDBRANCH   2  13
TORSDOF 3
ENDMDL
