MODEL 1
REMARK VINA RESULT:      -8.0      0.000      0.000
REMARK  Name = min_compound953.pdb
REMARK  4 active torsions:
REMARK  status: ('A' for Active; 'I' for Inactive)
REMARK    1  A    between atoms: _5  and  _14
REMARK    2  A    between atoms: _5  and  _15
REMARK    3  A    between atoms: _6  and  _13
REMARK    4  A    between atoms: _12  and  _16
REMARK                            x       y       z     vdW  Elec       q    Type
REMARK                         _______ _______ _______ _____ _____    ______ ____
ROOT
ATOM      1  C   UNL     1     -11.020   3.824 -16.080  0.00  0.00    +0.304 C 
ATOM      2  O   UNL     1     -12.280   3.730 -16.581  0.00  0.00    -0.436 OA
ATOM      3  C   UNL     1     -12.396   4.900 -17.385  0.00  0.00    +0.222 C 
ATOM      4  C   UNL     1     -13.551   5.731 -16.915  0.00  0.00    +0.214 C 
ATOM      5  C   UNL     1     -14.455   6.419 -17.920  0.00  0.00    +0.099 C 
ATOM      6  C   UNL     1     -15.143   7.683 -17.524  0.00  0.00    +0.044 C 
ATOM      7  C   UNL     1     -14.370   6.111 -19.393  0.00  0.00    +0.044 C 
ATOM      8  C   UNL     1     -13.003   5.552 -19.840  0.00  0.00    -0.027 C 
ATOM      9  C   UNL     1     -11.989   6.702 -19.976  0.00  0.00    +0.011 C 
ATOM     10  C   UNL     1     -13.163   4.904 -21.232  0.00  0.00    +0.011 C 
ATOM     11  O   UNL     1     -14.888   5.265 -17.172  0.00  0.00    -0.359 OA
ATOM     12  C   UNL     1     -12.529   4.458 -18.852  0.00  0.00    +0.079 C 
ATOM     13  N   UNL     1     -11.148   5.659 -17.160  0.00  0.00    -0.222 N 
ATOM     14  H   UNL     1     -10.927   6.543 -17.531  0.00  0.00    +0.172 HD
ATOM     15  N   UNL     1     -10.366   4.909 -16.349  0.00  0.00    -0.131 NA
ATOM     16  N   UNL     1     -10.594   2.822 -15.311  0.00  0.00    -0.268 N 
ATOM     17  H   UNL     1     -10.464   2.941 -14.343  0.00  0.00    +0.157 HD
ENDROOT
BRANCH  16  18
ATOM     18  C   UNL     1     -10.344   1.625 -15.915  0.00  0.00    +0.035 A 
ATOM     19  C   UNL     1     -10.075   1.463 -17.287  0.00  0.00    +0.023 A 
ATOM     20  C   UNL     1      -9.798   0.211 -17.847  0.00  0.00    +0.002 A 
ATOM     21  C   UNL     1      -9.774  -0.922 -17.040  0.00  0.00    +0.000 A 
ATOM     22  C   UNL     1     -10.024  -0.795 -15.676  0.00  0.00    +0.002 A 
ATOM     23  C   UNL     1     -10.300   0.464 -15.127  0.00  0.00    +0.023 A 
ENDBRANCH  16  18
TORSDOF 1
ENDMDL
MODEL 2
REMARK VINA RESULT:      -7.7      2.400      3.493
REMARK  Name = min_compound953.pdb
REMARK  4 active torsions:
REMARK  status: ('A' for Active; 'I' for Inactive)
REMARK    1  A    between atoms: _5  and  _14
REMARK    2  A    between atoms: _5  and  _15
REMARK    3  A    between atoms: _6  and  _13
REMARK    4  A    between atoms: _12  and  _16
REMARK                            x       y       z     vdW  Elec       q    Type
REMARK                         _______ _______ _______ _____ _____    ______ ____
ROOT
ATOM      1  C   UNL     1     -12.711   2.226 -18.441  0.00  0.00    +0.304 C 
ATOM      2  O   UNL     1     -12.374   3.294 -17.672  0.00  0.00    -0.436 OA
ATOM      3  C   UNL     1     -13.616   3.966 -17.490  0.00  0.00    +0.222 C 
ATOM      4  C   UNL     1     -13.518   5.372 -18.000  0.00  0.00    +0.214 C 
ATOM      5  C   UNL     1     -14.175   6.508 -17.240  0.00  0.00    +0.099 C 
ATOM      6  C   UNL     1     -14.632   7.711 -17.996  0.00  0.00    +0.044 C 
ATOM      7  C   UNL     1     -14.736   6.306 -15.856  0.00  0.00    +0.044 C 
ATOM      8  C   UNL     1     -15.116   4.844 -15.540  0.00  0.00    -0.027 C 
ATOM      9  C   UNL     1     -16.470   4.505 -16.189  0.00  0.00    +0.011 C 
ATOM     10  C   UNL     1     -15.280   4.692 -14.013  0.00  0.00    +0.011 C 
ATOM     11  O   UNL     1     -12.744   6.326 -17.252  0.00  0.00    -0.359 OA
ATOM     12  C   UNL     1     -13.985   3.891 -15.999  0.00  0.00    +0.079 C 
ATOM     13  N   UNL     1     -14.589   3.230 -18.324  0.00  0.00    -0.222 N 
ATOM     14  H   UNL     1     -15.535   3.463 -18.463  0.00  0.00    +0.172 HD
ATOM     15  N   UNL     1     -13.934   2.173 -18.862  0.00  0.00    -0.131 NA
ATOM     16  N   UNL     1     -11.741   1.363 -18.743  0.00  0.00    -0.268 N 
ATOM     17  H   UNL     1     -11.386   1.292 -19.658  0.00  0.00    +0.157 HD
ENDROOT
BRANCH  16  18
ATOM     18  C   UNL     1     -11.258   0.579 -17.736  0.00  0.00    +0.035 A 
ATOM     19  C   UNL     1     -12.055  -0.196 -16.874  0.00  0.00    +0.023 A 
ATOM     20  C   UNL     1     -11.502  -1.003 -15.875  0.00  0.00    +0.002 A 
ATOM     21  C   UNL     1     -10.121  -1.066 -15.716  0.00  0.00    +0.000 A 
ATOM     22  C   UNL     1      -9.302  -0.321 -16.561  0.00  0.00    +0.002 A 
ATOM     23  C   UNL     1      -9.869   0.485 -17.558  0.00  0.00    +0.023 A 
ENDBRANCH  16  18
TORSDOF 1
ENDMDL
MODEL 3
REMARK VINA RESULT:      -7.6      4.336      6.163
REMARK  Name = min_compound953.pdb
REMARK  4 active torsions:
REMARK  status: ('A' for Active; 'I' for Inactive)
REMARK    1  A    between atoms: _5  and  _14
REMARK    2  A    between atoms: _5  and  _15
REMARK    3  A    between atoms: _6  and  _13
REMARK    4  A    between atoms: _12  and  _16
REMARK                            x       y       z     vdW  Elec       q    Type
REMARK                         _______ _______ _______ _____ _____    ______ ____
ROOT
ATOM      1  C   UNL     1     -15.903   3.939 -15.099  0.00  0.00    +0.304 C 
ATOM      2  O   UNL     1     -14.973   2.955 -15.215  0.00  0.00    -0.436 OA
ATOM      3  C   UNL     1     -14.079   3.471 -16.195  0.00  0.00    +0.222 C 
ATOM      4  C   UNL     1     -13.993   2.527 -17.357  0.00  0.00    +0.214 C 
ATOM      5  C   UNL     1     -12.661   2.265 -18.031  0.00  0.00    +0.099 C 
ATOM      6  C   UNL     1     -12.645   1.892 -19.476  0.00  0.00    +0.044 C 
ATOM      7  C   UNL     1     -11.366   2.746 -17.427  0.00  0.00    +0.044 C 
ATOM      8  C   UNL     1     -11.527   3.952 -16.479  0.00  0.00    -0.027 C 
ATOM      9  C   UNL     1     -11.678   5.246 -17.299  0.00  0.00    +0.011 C 
ATOM     10  C   UNL     1     -10.247   4.088 -15.626  0.00  0.00    +0.011 C 
ATOM     11  O   UNL     1     -13.294   1.282 -17.186  0.00  0.00    -0.359 OA
ATOM     12  C   UNL     1     -12.719   3.717 -15.519  0.00  0.00    +0.079 C 
ATOM     13  N   UNL     1     -14.688   4.735 -16.659  0.00  0.00    -0.222 N 
ATOM     14  H   UNL     1     -14.347   5.321 -17.374  0.00  0.00    +0.172 HD
ATOM     15  N   UNL     1     -15.802   4.936 -15.918  0.00  0.00    -0.131 NA
ATOM     16  N   UNL     1     -16.867   3.762 -14.195  0.00  0.00    -0.268 N 
ATOM     17  H   UNL     1     -17.796   3.586 -14.467  0.00  0.00    +0.157 HD
ENDROOT
BRANCH  16  18
ATOM     18  C   UNL     1     -16.519   3.833 -12.878  0.00  0.00    +0.035 A 
ATOM     19  C   UNL     1     -15.505   4.661 -12.363  0.00  0.00    +0.023 A 
ATOM     20  C   UNL     1     -15.209   4.713 -10.997  0.00  0.00    +0.002 A 
ATOM     21  C   UNL     1     -15.935   3.938 -10.098  0.00  0.00    +0.000 A 
ATOM     22  C   UNL     1     -16.954   3.116 -10.573  0.00  0.00    +0.002 A 
ATOM     23  C   UNL     1     -17.240   3.073 -11.944  0.00  0.00    +0.023 A 
ENDBRANCH  16  18
TORSDOF 1
ENDMDL
MODEL 4
REMARK VINA RESULT:      -7.5      1.943      2.222
REMARK  Name = min_compound953.pdb
REMARK  4 active torsions:
REMARK  status: ('A' for Active; 'I' for Inactive)
REMARK    1  A    between atoms: _5  and  _14
REMARK    2  A    between atoms: _5  and  _15
REMARK    3  A    between atoms: _6  and  _13
REMARK    4  A    between atoms: _12  and  _16
REMARK                            x       y       z     vdW  Elec       q    Type
REMARK                         _______ _______ _______ _____ _____    ______ ____
ROOT
ATOM      1  C   UNL     1     -13.477   2.721 -16.746  0.00  0.00    +0.304 C 
ATOM      2  O   UNL     1     -13.652   2.939 -18.075  0.00  0.00    -0.436 OA
ATOM      3  C   UNL     1     -13.856   4.347 -18.147  0.00  0.00    +0.222 C 
ATOM      4  C   UNL     1     -15.181   4.640 -18.783  0.00  0.00    +0.214 C 
ATOM      5  C   UNL     1     -15.320   5.791 -19.762  0.00  0.00    +0.099 C 
ATOM      6  C   UNL     1     -16.641   6.473 -19.889  0.00  0.00    +0.044 C 
ATOM      7  C   UNL     1     -14.112   6.517 -20.297  0.00  0.00    +0.044 C 
ATOM      8  C   UNL     1     -12.869   6.422 -19.389  0.00  0.00    -0.027 C 
ATOM      9  C   UNL     1     -13.002   7.412 -18.217  0.00  0.00    +0.011 C 
ATOM     10  C   UNL     1     -11.625   6.830 -20.205  0.00  0.00    +0.011 C 
ATOM     11  O   UNL     1     -15.333   4.415 -20.196  0.00  0.00    -0.359 OA
ATOM     12  C   UNL     1     -12.671   4.962 -18.911  0.00  0.00    +0.079 C 
ATOM     13  N   UNL     1     -13.895   4.812 -16.745  0.00  0.00    -0.222 N 
ATOM     14  H   UNL     1     -14.070   5.731 -16.438  0.00  0.00    +0.172 HD
ATOM     15  N   UNL     1     -13.644   3.737 -15.961  0.00  0.00    -0.131 NA
ATOM     16  N   UNL     1     -13.209   1.472 -16.364  0.00  0.00    -0.268 N 
ATOM     17  H   UNL     1     -13.870   0.936 -15.869  0.00  0.00    +0.157 HD
ENDROOT
BRANCH  16  18
ATOM     18  C   UNL     1     -11.984   0.963 -16.684  0.00  0.00    +0.035 A 
ATOM     19  C   UNL     1     -10.899   1.727 -17.151  0.00  0.00    +0.023 A 
ATOM     20  C   UNL     1      -9.656   1.154 -17.438  0.00  0.00    +0.002 A 
ATOM     21  C   UNL     1      -9.460  -0.212 -17.254  0.00  0.00    +0.000 A 
ATOM     22  C   UNL     1     -10.510  -0.994 -16.781  0.00  0.00    +0.002 A 
ATOM     23  C   UNL     1     -11.751  -0.408 -16.498  0.00  0.00    +0.023 A 
ENDBRANCH  16  18
TORSDOF 1
ENDMDL
MODEL 5
REMARK VINA RESULT:      -7.4      3.376      4.482
REMARK  Name = min_compound953.pdb
REMARK  4 active torsions:
REMARK  status: ('A' for Active; 'I' for Inactive)
REMARK    1  A    between atoms: _5  and  _14
REMARK    2  A    between atoms: _5  and  _15
REMARK    3  A    between atoms: _6  and  _13
REMARK    4  A    between atoms: _12  and  _16
REMARK                            x       y       z     vdW  Elec       q    Type
REMARK                         _______ _______ _______ _____ _____    ______ ____
ROOT
ATOM      1  C   UNL     1     -13.687   3.304 -17.543  0.00  0.00    +0.304 C 
ATOM      2  O   UNL     1     -13.781   3.993 -16.375  0.00  0.00    -0.436 OA
ATOM      3  C   UNL     1     -15.187   4.093 -16.173  0.00  0.00    +0.222 C 
ATOM      4  C   UNL     1     -15.589   5.534 -16.077  0.00  0.00    +0.214 C 
ATOM      5  C   UNL     1     -16.635   5.969 -15.069  0.00  0.00    +0.099 C 
ATOM      6  C   UNL     1     -17.475   7.165 -15.372  0.00  0.00    +0.044 C 
ATOM      7  C   UNL     1     -17.125   5.035 -13.992  0.00  0.00    +0.044 C 
ATOM      8  C   UNL     1     -16.959   3.540 -14.335  0.00  0.00    -0.027 C 
ATOM      9  C   UNL     1     -18.079   3.097 -15.293  0.00  0.00    +0.011 C 
ATOM     10  C   UNL     1     -17.101   2.715 -13.038  0.00  0.00    +0.011 C 
ATOM     11  O   UNL     1     -15.236   6.273 -14.895  0.00  0.00    -0.359 OA
ATOM     12  C   UNL     1     -15.547   3.283 -14.916  0.00  0.00    +0.079 C 
ATOM     13  N   UNL     1     -15.803   3.512 -17.384  0.00  0.00    -0.222 N 
ATOM     14  H   UNL     1     -16.765   3.469 -17.588  0.00  0.00    +0.172 HD
ATOM     15  N   UNL     1     -14.795   3.049 -18.161  0.00  0.00    -0.131 NA
ATOM     16  N   UNL     1     -12.462   3.005 -17.976  0.00  0.00    -0.268 N 
ATOM     17  H   UNL     1     -12.079   3.444 -18.769  0.00  0.00    +0.157 HD
ENDROOT
BRANCH  16  18
ATOM     18  C   UNL     1     -11.757   2.068 -17.279  0.00  0.00    +0.035 A 
ATOM     19  C   UNL     1     -10.948   2.343 -16.162  0.00  0.00    +0.023 A 
ATOM     20  C   UNL     1     -10.270   1.335 -15.469  0.00  0.00    +0.002 A 
ATOM     21  C   UNL     1     -10.391   0.010 -15.873  0.00  0.00    +0.000 A 
ATOM     22  C   UNL     1     -11.194  -0.299 -16.968  0.00  0.00    +0.002 A 
ATOM     23  C   UNL     1     -11.868   0.719 -17.654  0.00  0.00    +0.023 A 
ENDBRANCH  16  18
TORSDOF 1
ENDMDL
MODEL 6
REMARK VINA RESULT:      -7.2      4.543      6.190
REMARK  Name = min_compound953.pdb
REMARK  4 active torsions:
REMARK  status: ('A' for Active; 'I' for Inactive)
REMARK    1  A    between atoms: _5  and  _14
REMARK    2  A    between atoms: _5  and  _15
REMARK    3  A    between atoms: _6  and  _13
REMARK    4  A    between atoms: _12  and  _16
REMARK                            x       y       z     vdW  Elec       q    Type
REMARK                         _______ _______ _______ _____ _____    ______ ____
ROOT
ATOM      1  C   UNL     1     -15.133   4.598 -15.977  0.00  0.00    +0.304 C 
ATOM      2  O   UNL     1     -15.013   5.477 -14.948  0.00  0.00    -0.436 OA
ATOM      3  C   UNL     1     -16.092   5.120 -14.090  0.00  0.00    +0.222 C 
ATOM      4  C   UNL     1     -16.994   6.299 -13.883  0.00  0.00    +0.214 C 
ATOM      5  C   UNL     1     -17.590   6.574 -12.516  0.00  0.00    +0.099 C 
ATOM      6  C   UNL     1     -18.903   7.278 -12.430  0.00  0.00    +0.044 C 
ATOM      7  C   UNL     1     -17.124   5.828 -11.291  0.00  0.00    +0.044 C 
ATOM      8  C   UNL     1     -16.492   4.454 -11.596  0.00  0.00    -0.027 C 
ATOM      9  C   UNL     1     -17.598   3.418 -11.862  0.00  0.00    +0.011 C 
ATOM     10  C   UNL     1     -15.702   3.984 -10.356  0.00  0.00    +0.011 C 
ATOM     11  O   UNL     1     -16.531   7.387 -13.063  0.00  0.00    -0.359 OA
ATOM     12  C   UNL     1     -15.499   4.577 -12.779  0.00  0.00    +0.079 C 
ATOM     13  N   UNL     1     -16.844   4.075 -14.816  0.00  0.00    -0.222 N 
ATOM     14  H   UNL     1     -17.679   3.644 -14.522  0.00  0.00    +0.172 HD
ATOM     15  N   UNL     1     -16.168   3.821 -15.962  0.00  0.00    -0.131 NA
ATOM     16  N   UNL     1     -14.210   4.654 -16.937  0.00  0.00    -0.268 N 
ATOM     17  H   UNL     1     -14.429   4.987 -17.837  0.00  0.00    +0.157 HD
ENDROOT
BRANCH  16  18
ATOM     18  C   UNL     1     -12.950   4.234 -16.627  0.00  0.00    +0.035 A 
ATOM     19  C   UNL     1     -11.775   4.955 -16.907  0.00  0.00    +0.023 A 
ATOM     20  C   UNL     1     -10.510   4.486 -16.540  0.00  0.00    +0.002 A 
ATOM     21  C   UNL     1     -10.385   3.274 -15.867  0.00  0.00    +0.000 A 
ATOM     22  C   UNL     1     -11.529   2.541 -15.564  0.00  0.00    +0.002 A 
ATOM     23  C   UNL     1     -12.791   3.022 -15.937  0.00  0.00    +0.023 A 
ENDBRANCH  16  18
TORSDOF 1
ENDMDL
MODEL 7
REMARK VINA RESULT:      -7.2      8.961     11.402
REMARK  Name = min_compound953.pdb
REMARK  4 active torsions:
REMARK  status: ('A' for Active; 'I' for Inactive)
REMARK    1  A    between atoms: _5  and  _14
REMARK    2  A    between atoms: _5  and  _15
REMARK    3  A    between atoms: _6  and  _13
REMARK    4  A    between atoms: _12  and  _16
REMARK                            x       y       z     vdW  Elec       q    Type
REMARK                         _______ _______ _______ _____ _____    ______ ____
ROOT
ATOM      1  C   UNL     1     -16.574   3.653  -9.018  0.00  0.00    +0.304 C 
ATOM      2  O   UNL     1     -15.596   2.749  -8.750  0.00  0.00    -0.436 OA
ATOM      3  C   UNL     1     -16.189   1.917  -7.758  0.00  0.00    +0.222 C 
ATOM      4  C   UNL     1     -15.352   1.929  -6.514  0.00  0.00    +0.214 C 
ATOM      5  C   UNL     1     -15.137   0.650  -5.727  0.00  0.00    +0.099 C 
ATOM      6  C   UNL     1     -14.894   0.741  -4.257  0.00  0.00    +0.044 C 
ATOM      7  C   UNL     1     -15.551  -0.691  -6.278  0.00  0.00    +0.044 C 
ATOM      8  C   UNL     1     -16.669  -0.616  -7.338  0.00  0.00    -0.027 C 
ATOM      9  C   UNL     1     -18.032  -0.428  -6.648  0.00  0.00    +0.011 C 
ATOM     10  C   UNL     1     -16.716  -1.954  -8.106  0.00  0.00    +0.011 C 
ATOM     11  O   UNL     1     -14.089   1.239  -6.525  0.00  0.00    -0.359 OA
ATOM     12  C   UNL     1     -16.361   0.511  -8.355  0.00  0.00    +0.079 C 
ATOM     13  N   UNL     1     -17.495   2.537  -7.451  0.00  0.00    -0.222 N 
ATOM     14  H   UNL     1     -18.138   2.238  -6.769  0.00  0.00    +0.172 HD
ATOM     15  N   UNL     1     -17.640   3.594  -8.285  0.00  0.00    -0.131 NA
ATOM     16  N   UNL     1     -16.327   4.555  -9.969  0.00  0.00    -0.268 N 
ATOM     17  H   UNL     1     -16.185   5.504  -9.748  0.00  0.00    +0.157 HD
ENDROOT
BRANCH  16  18
ATOM     18  C   UNL     1     -16.278   4.115 -11.259  0.00  0.00    +0.035 A 
ATOM     19  C   UNL     1     -17.190   3.208 -11.829  0.00  0.00    +0.023 A 
ATOM     20  C   UNL     1     -17.106   2.813 -13.168  0.00  0.00    +0.002 A 
ATOM     21  C   UNL     1     -16.102   3.326 -13.984  0.00  0.00    +0.000 A 
ATOM     22  C   UNL     1     -15.190   4.235 -13.454  0.00  0.00    +0.002 A 
ATOM     23  C   UNL     1     -15.285   4.623 -12.111  0.00  0.00    +0.023 A 
ENDBRANCH  16  18
TORSDOF 1
ENDMDL
MODEL 8
REMARK VINA RESULT:      -7.2      3.873      6.511
REMARK  Name = min_compound953.pdb
REMARK  4 active torsions:
REMARK  status: ('A' for Active; 'I' for Inactive)
REMARK    1  A    between atoms: _5  and  _14
REMARK    2  A    between atoms: _5  and  _15
REMARK    3  A    between atoms: _6  and  _13
REMARK    4  A    between atoms: _12  and  _16
REMARK                            x       y       z     vdW  Elec       q    Type
REMARK                         _______ _______ _______ _____ _____    ______ ____
ROOT
ATOM      1  C   UNL     1     -15.400   2.520 -15.964  0.00  0.00    +0.304 C 
ATOM      2  O   UNL     1     -14.295   1.961 -15.405  0.00  0.00    -0.436 OA
ATOM      3  C   UNL     1     -13.270   2.259 -16.349  0.00  0.00    +0.222 C 
ATOM      4  C   UNL     1     -12.635   0.990 -16.832  0.00  0.00    +0.214 C 
ATOM      5  C   UNL     1     -11.135   0.921 -17.046  0.00  0.00    +0.099 C 
ATOM      6  C   UNL     1     -10.596  -0.020 -18.071  0.00  0.00    +0.044 C 
ATOM      7  C   UNL     1     -10.222   2.022 -16.570  0.00  0.00    +0.044 C 
ATOM      8  C   UNL     1     -10.917   3.390 -16.413  0.00  0.00    -0.027 C 
ATOM      9  C   UNL     1     -11.075   4.056 -17.791  0.00  0.00    +0.011 C 
ATOM     10  C   UNL     1     -10.021   4.306 -15.553  0.00  0.00    +0.011 C 
ATOM     11  O   UNL     1     -11.777   0.262 -15.935  0.00  0.00    -0.359 OA
ATOM     12  C   UNL     1     -12.270   3.217 -15.680  0.00  0.00    +0.079 C 
ATOM     13  N   UNL     1     -13.957   2.904 -17.487  0.00  0.00    -0.222 N 
ATOM     14  H   UNL     1     -13.544   3.192 -18.333  0.00  0.00    +0.172 HD
ATOM     15  N   UNL     1     -15.263   3.025 -17.148  0.00  0.00    -0.131 NA
ATOM     16  N   UNL     1     -16.536   2.448 -15.270  0.00  0.00    -0.268 N 
ATOM     17  H   UNL     1     -17.277   1.870 -15.563  0.00  0.00    +0.157 HD
ENDROOT
BRANCH  16  18
ATOM     18  C   UNL     1     -16.634   3.203 -14.139  0.00  0.00    +0.035 A 
ATOM     19  C   UNL     1     -17.225   2.771 -12.937  0.00  0.00    +0.023 A 
ATOM     20  C   UNL     1     -17.273   3.581 -11.799  0.00  0.00    +0.002 A 
ATOM     21  C   UNL     1     -16.717   4.856 -11.828  0.00  0.00    +0.000 A 
ATOM     22  C   UNL     1     -16.114   5.311 -12.997  0.00  0.00    +0.002 A 
ATOM     23  C   UNL     1     -16.072   4.490 -14.132  0.00  0.00    +0.023 A 
ENDBRANCH  16  18
TORSDOF 1
ENDMDL
MODEL 9
REMARK VINA RESULT:      -7.0     13.315     16.243
REMARK  Name = min_compound953.pdb
REMARK  4 active torsions:
REMARK  status: ('A' for Active; 'I' for Inactive)
REMARK    1  A    between atoms: _5  and  _14
REMARK    2  A    between atoms: _5  and  _15
REMARK    3  A    between atoms: _6  and  _13
REMARK    4  A    between atoms: _12  and  _16
REMARK                            x       y       z     vdW  Elec       q    Type
REMARK                         _______ _______ _______ _____ _____    ______ ____
ROOT
ATOM      1  C   UNL     1     -14.141  -0.800  -4.370  0.00  0.00    +0.304 C 
ATOM      2  O   UNL     1     -14.655  -2.055  -4.282  0.00  0.00    -0.436 OA
ATOM      3  C   UNL     1     -15.012  -2.162  -2.908  0.00  0.00    +0.222 C 
ATOM      4  C   UNL     1     -14.297  -3.321  -2.282  0.00  0.00    +0.214 C 
ATOM      5  C   UNL     1     -15.015  -4.214  -1.288  0.00  0.00    +0.099 C 
ATOM      6  C   UNL     1     -14.217  -4.905  -0.233  0.00  0.00    +0.044 C 
ATOM      7  C   UNL     1     -16.504  -4.116  -1.076  0.00  0.00    +0.044 C 
ATOM      8  C   UNL     1     -17.103  -2.746  -1.454  0.00  0.00    -0.027 C 
ATOM      9  C   UNL     1     -16.830  -1.729  -0.331  0.00  0.00    +0.011 C 
ATOM     10  C   UNL     1     -18.633  -2.892  -1.589  0.00  0.00    +0.011 C 
ATOM     11  O   UNL     1     -14.709  -4.655  -2.627  0.00  0.00    -0.359 OA
ATOM     12  C   UNL     1     -16.544  -2.281  -2.822  0.00  0.00    +0.079 C 
ATOM     13  N   UNL     1     -14.532  -0.915  -2.276  0.00  0.00    -0.222 N 
ATOM     14  H   UNL     1     -14.577  -0.690  -1.319  0.00  0.00    +0.172 HD
ATOM     15  N   UNL     1     -14.018  -0.142  -3.261  0.00  0.00    -0.131 NA
ATOM     16  N   UNL     1     -13.757  -0.382  -5.576  0.00  0.00    -0.268 N 
ATOM     17  H   UNL     1     -12.805  -0.260  -5.795  0.00  0.00    +0.157 HD
ENDROOT
BRANCH  16  18
ATOM     18  C   UNL     1     -14.731  -0.127  -6.496  0.00  0.00    +0.035 A 
ATOM     19  C   UNL     1     -15.642  -1.084  -6.981  0.00  0.00    +0.023 A 
ATOM     20  C   UNL     1     -16.640  -0.758  -7.905  0.00  0.00    +0.002 A 
ATOM     21  C   UNL     1     -16.760   0.548  -8.368  0.00  0.00    +0.000 A 
ATOM     22  C   UNL     1     -15.883   1.522  -7.899  0.00  0.00    +0.002 A 
ATOM     23  C   UNL     1     -14.887   1.184  -6.973  0.00  0.00    +0.023 A 
ENDBRANCH  16  18
TORSDOF 1
ENDMDL
