MODEL 1
REMARK VINA RESULT:      -5.3      0.000      0.000
REMARK  Name = min_compound2.pdb
REMARK  2 active torsions:
REMARK  status: ('A' for Active; 'I' for Inactive)
REMARK    1  A    between atoms: _1  and  _9
REMARK    2  A    between atoms: _2  and  _7
REMARK                            x       y       z     vdW  Elec       q    Type
REMARK                         _______ _______ _______ _____ _____    ______ ____
ROOT
ATOM      1  C   UNL     1     -11.396   1.032 -17.350  0.00  0.00    -0.035 A 
ATOM      2  C   UNL     1     -12.285   1.814 -18.271  0.00  0.00    +0.044 C 
ATOM      3  C   UNL     1     -10.928  -0.243 -17.713  0.00  0.00    +0.024 A 
ATOM      4  C   UNL     1     -10.058  -0.915 -16.865  0.00  0.00    +0.111 A 
ATOM      5  N   UNL     1      -9.615  -0.410 -15.697  0.00  0.00    -0.262 NA
ATOM      6  C   UNL     1     -10.063   0.827 -15.363  0.00  0.00    +0.124 A 
ATOM      7  C   UNL     1     -10.955   1.572 -16.129  0.00  0.00    +0.057 A 
ENDROOT
BRANCH   7   8
ATOM      8  C   UNL     1     -11.343   2.899 -15.599  0.00  0.00    +0.243 C 
ATOM      9  N   UNL     1     -10.359   3.836 -15.453  0.00  0.00    -0.325 N 
ATOM     10  H   UNL     1      -9.451   3.740 -15.882  0.00  0.00    +0.145 HD
ATOM     11  H   UNL     1     -10.664   4.768 -15.199  0.00  0.00    +0.145 HD
ATOM     12  O   UNL     1     -12.510   3.169 -15.347  0.00  0.00    -0.270 OA
ENDBRANCH   7   8
TORSDOF 1
ENDMDL
MODEL 2
REMARK VINA RESULT:      -5.0      1.905      2.534
REMARK  Name = min_compound2.pdb
REMARK  2 active torsions:
REMARK  status: ('A' for Active; 'I' for Inactive)
REMARK    1  A    between atoms: _1  and  _9
REMARK    2  A    between atoms: _2  and  _7
REMARK                            x       y       z     vdW  Elec       q    Type
REMARK                         _______ _______ _______ _____ _____    ______ ____
ROOT
ATOM      1  C   UNL     1     -11.036   1.798 -15.917  0.00  0.00    -0.035 A 
ATOM      2  C   UNL     1     -10.895   3.257 -15.598  0.00  0.00    +0.044 C 
ATOM      3  C   UNL     1     -10.006   0.891 -15.612  0.00  0.00    +0.024 A 
ATOM      4  C   UNL     1     -10.193  -0.460 -15.864  0.00  0.00    +0.111 A 
ATOM      5  N   UNL     1     -11.324  -0.973 -16.384  0.00  0.00    -0.262 NA
ATOM      6  C   UNL     1     -12.317  -0.091 -16.663  0.00  0.00    +0.124 A 
ATOM      7  C   UNL     1     -12.222   1.285 -16.472  0.00  0.00    +0.057 A 
ENDROOT
BRANCH   7   8
ATOM      8  C   UNL     1     -13.403   2.094 -16.846  0.00  0.00    +0.243 C 
ATOM      9  N   UNL     1     -13.464   2.575 -18.124  0.00  0.00    -0.325 N 
ATOM     10  H   UNL     1     -12.867   2.230 -18.862  0.00  0.00    +0.145 HD
ATOM     11  H   UNL     1     -14.331   3.026 -18.391  0.00  0.00    +0.145 HD
ATOM     12  O   UNL     1     -14.321   2.286 -16.059  0.00  0.00    -0.270 OA
ENDBRANCH   7   8
TORSDOF 1
ENDMDL
MODEL 3
REMARK VINA RESULT:      -4.9      2.273      3.836
REMARK  Name = min_compound2.pdb
REMARK  2 active torsions:
REMARK  status: ('A' for Active; 'I' for Inactive)
REMARK    1  A    between atoms: _1  and  _9
REMARK    2  A    between atoms: _2  and  _7
REMARK                            x       y       z     vdW  Elec       q    Type
REMARK                         _______ _______ _______ _____ _____    ______ ____
ROOT
ATOM      1  C   UNL     1     -11.545   3.222 -15.892  0.00  0.00    -0.035 A 
ATOM      2  C   UNL     1     -10.281   4.011 -15.713  0.00  0.00    +0.044 C 
ATOM      3  C   UNL     1     -12.802   3.830 -15.728  0.00  0.00    +0.024 A 
ATOM      4  C   UNL     1     -13.951   3.088 -15.960  0.00  0.00    +0.111 A 
ATOM      5  N   UNL     1     -13.941   1.798 -16.350  0.00  0.00    -0.262 NA
ATOM      6  C   UNL     1     -12.723   1.225 -16.517  0.00  0.00    +0.124 A 
ATOM      7  C   UNL     1     -11.512   1.873 -16.286  0.00  0.00    +0.057 A 
ENDROOT
BRANCH   7   8
ATOM      8  C   UNL     1     -10.280   1.084 -16.508  0.00  0.00    +0.243 C 
ATOM      9  N   UNL     1      -9.911   0.195 -15.537  0.00  0.00    -0.325 N 
ATOM     10  H   UNL     1     -10.540  -0.096 -14.802  0.00  0.00    +0.145 HD
ATOM     11  H   UNL     1      -9.134  -0.414 -15.760  0.00  0.00    +0.145 HD
ATOM     12  O   UNL     1      -9.638   1.181 -17.546  0.00  0.00    -0.270 OA
ENDBRANCH   7   8
TORSDOF 1
ENDMDL
MODEL 4
REMARK VINA RESULT:      -4.8     11.919     12.587
REMARK  Name = min_compound2.pdb
REMARK  2 active torsions:
REMARK  status: ('A' for Active; 'I' for Inactive)
REMARK    1  A    between atoms: _1  and  _9
REMARK    2  A    between atoms: _2  and  _7
REMARK                            x       y       z     vdW  Elec       q    Type
REMARK                         _______ _______ _______ _____ _____    ______ ____
ROOT
ATOM      1  C   UNL     1     -14.406   0.291  -5.450  0.00  0.00    -0.035 A 
ATOM      2  C   UNL     1     -14.228   1.114  -6.691  0.00  0.00    +0.044 C 
ATOM      3  C   UNL     1     -14.475  -1.112  -5.520  0.00  0.00    +0.024 A 
ATOM      4  C   UNL     1     -14.578  -1.847  -4.348  0.00  0.00    +0.111 A 
ATOM      5  N   UNL     1     -14.608  -1.294  -3.120  0.00  0.00    -0.262 NA
ATOM      6  C   UNL     1     -14.528   0.060  -3.063  0.00  0.00    +0.124 A 
ATOM      7  C   UNL     1     -14.447   0.889  -4.178  0.00  0.00    +0.057 A 
ENDROOT
BRANCH   7   8
ATOM      8  C   UNL     1     -14.381   2.345  -3.923  0.00  0.00    +0.243 C 
ATOM      9  N   UNL     1     -15.555   3.045  -3.926  0.00  0.00    -0.325 N 
ATOM     10  H   UNL     1     -16.456   2.591  -3.878  0.00  0.00    +0.145 HD
ATOM     11  H   UNL     1     -15.500   4.014  -3.637  0.00  0.00    +0.145 HD
ATOM     12  O   UNL     1     -13.321   2.901  -3.666  0.00  0.00    -0.270 OA
ENDBRANCH   7   8
TORSDOF 1
ENDMDL
MODEL 5
REMARK VINA RESULT:      -4.8     11.586     12.456
REMARK  Name = min_compound2.pdb
REMARK  2 active torsions:
REMARK  status: ('A' for Active; 'I' for Inactive)
REMARK    1  A    between atoms: _1  and  _9
REMARK    2  A    between atoms: _2  and  _7
REMARK                            x       y       z     vdW  Elec       q    Type
REMARK                         _______ _______ _______ _____ _____    ______ ____
ROOT
ATOM      1  C   UNL     1     -14.102   0.859  -3.974  0.00  0.00    -0.035 A 
ATOM      2  C   UNL     1     -13.775   2.318  -3.849  0.00  0.00    +0.044 C 
ATOM      3  C   UNL     1     -13.971  -0.004  -2.871  0.00  0.00    +0.024 A 
ATOM      4  C   UNL     1     -14.340  -1.336  -3.004  0.00  0.00    +0.111 A 
ATOM      5  N   UNL     1     -14.833  -1.865  -4.140  0.00  0.00    -0.262 NA
ATOM      6  C   UNL     1     -14.967  -1.020  -5.194  0.00  0.00    +0.124 A 
ATOM      7  C   UNL     1     -14.604   0.324  -5.173  0.00  0.00    +0.057 A 
ENDROOT
BRANCH   7   8
ATOM      8  C   UNL     1     -14.809   1.090  -6.423  0.00  0.00    +0.243 C 
ATOM      9  N   UNL     1     -16.013   1.715  -6.594  0.00  0.00    -0.325 N 
ATOM     10  H   UNL     1     -16.663   1.856  -5.834  0.00  0.00    +0.145 HD
ATOM     11  H   UNL     1     -16.089   2.325  -7.399  0.00  0.00    +0.145 HD
ATOM     12  O   UNL     1     -13.919   1.206  -7.254  0.00  0.00    -0.270 OA
ENDBRANCH   7   8
TORSDOF 1
ENDMDL
MODEL 6
REMARK VINA RESULT:      -4.7     12.914     13.469
REMARK  Name = min_compound2.pdb
REMARK  2 active torsions:
REMARK  status: ('A' for Active; 'I' for Inactive)
REMARK    1  A    between atoms: _1  and  _9
REMARK    2  A    between atoms: _2  and  _7
REMARK                            x       y       z     vdW  Elec       q    Type
REMARK                         _______ _______ _______ _____ _____    ______ ____
ROOT
ATOM      1  C   UNL     1     -14.568   1.253  -3.799  0.00  0.00    -0.035 A 
ATOM      2  C   UNL     1     -13.185   1.073  -3.248  0.00  0.00    +0.044 C 
ATOM      3  C   UNL     1     -15.150   2.531  -3.880  0.00  0.00    +0.024 A 
ATOM      4  C   UNL     1     -16.407   2.671  -4.452  0.00  0.00    +0.111 A 
ATOM      5  N   UNL     1     -17.118   1.642  -4.953  0.00  0.00    -0.262 NA
ATOM      6  C   UNL     1     -16.542   0.415  -4.881  0.00  0.00    +0.124 A 
ATOM      7  C   UNL     1     -15.298   0.164  -4.306  0.00  0.00    +0.057 A 
ENDROOT
BRANCH   7   8
ATOM      8  C   UNL     1     -14.836  -1.241  -4.306  0.00  0.00    +0.243 C 
ATOM      9  N   UNL     1     -14.441  -1.780  -5.498  0.00  0.00    -0.325 N 
ATOM     10  H   UNL     1     -14.250  -1.214  -6.312  0.00  0.00    +0.145 HD
ATOM     11  H   UNL     1     -14.022  -2.701  -5.456  0.00  0.00    +0.145 HD
ATOM     12  O   UNL     1     -14.757  -1.888  -3.269  0.00  0.00    -0.270 OA
ENDBRANCH   7   8
TORSDOF 1
ENDMDL
MODEL 7
REMARK VINA RESULT:      -4.7      1.742      3.411
REMARK  Name = min_compound2.pdb
REMARK  2 active torsions:
REMARK  status: ('A' for Active; 'I' for Inactive)
REMARK    1  A    between atoms: _1  and  _9
REMARK    2  A    between atoms: _2  and  _7
REMARK                            x       y       z     vdW  Elec       q    Type
REMARK                         _______ _______ _______ _____ _____    ______ ____
ROOT
ATOM      1  C   UNL     1     -12.049   2.397 -17.791  0.00  0.00    -0.035 A 
ATOM      2  C   UNL     1     -12.867   1.913 -18.952  0.00  0.00    +0.044 C 
ATOM      3  C   UNL     1     -11.906   3.773 -17.535  0.00  0.00    +0.024 A 
ATOM      4  C   UNL     1     -11.194   4.186 -16.418  0.00  0.00    +0.111 A 
ATOM      5  N   UNL     1     -10.627   3.337 -15.539  0.00  0.00    -0.262 NA
ATOM      6  C   UNL     1     -10.781   2.012 -15.788  0.00  0.00    +0.124 A 
ATOM      7  C   UNL     1     -11.454   1.495 -16.892  0.00  0.00    +0.057 A 
ENDROOT
BRANCH   7   8
ATOM      8  C   UNL     1     -11.511   0.021 -17.008  0.00  0.00    +0.243 C 
ATOM      9  N   UNL     1     -10.437  -0.615 -17.565  0.00  0.00    -0.325 N 
ATOM     10  H   UNL     1      -9.545  -0.159 -17.694  0.00  0.00    +0.145 HD
ATOM     11  H   UNL     1     -10.447  -1.627 -17.529  0.00  0.00    +0.145 HD
ATOM     12  O   UNL     1     -12.462  -0.618 -16.575  0.00  0.00    -0.270 OA
ENDBRANCH   7   8
TORSDOF 1
ENDMDL
MODEL 8
REMARK VINA RESULT:      -4.7     12.223     13.053
REMARK  Name = min_compound2.pdb
REMARK  2 active torsions:
REMARK  status: ('A' for Active; 'I' for Inactive)
REMARK    1  A    between atoms: _1  and  _9
REMARK    2  A    between atoms: _2  and  _7
REMARK                            x       y       z     vdW  Elec       q    Type
REMARK                         _______ _______ _______ _____ _____    ______ ____
ROOT
ATOM      1  C   UNL     1     -14.076   0.750  -4.428  0.00  0.00    -0.035 A 
ATOM      2  C   UNL     1     -13.636   1.713  -3.365  0.00  0.00    +0.044 C 
ATOM      3  C   UNL     1     -13.946   1.074  -5.790  0.00  0.00    +0.024 A 
ATOM      4  C   UNL     1     -14.306   0.137  -6.749  0.00  0.00    +0.111 A 
ATOM      5  N   UNL     1     -14.773  -1.091  -6.454  0.00  0.00    -0.262 NA
ATOM      6  C   UNL     1     -14.883  -1.398  -5.137  0.00  0.00    +0.124 A 
ATOM      7  C   UNL     1     -14.573  -0.523  -4.099  0.00  0.00    +0.057 A 
ENDROOT
BRANCH   7   8
ATOM      8  C   UNL     1     -14.768  -1.027  -2.721  0.00  0.00    +0.243 C 
ATOM      9  N   UNL     1     -16.031  -0.978  -2.200  0.00  0.00    -0.325 N 
ATOM     10  H   UNL     1     -16.848  -0.823  -2.773  0.00  0.00    +0.145 HD
ATOM     11  H   UNL     1     -16.162  -1.432  -1.304  0.00  0.00    +0.145 HD
ATOM     12  O   UNL     1     -13.845  -1.519  -2.085  0.00  0.00    -0.270 OA
ENDBRANCH   7   8
TORSDOF 1
ENDMDL
MODEL 9
REMARK VINA RESULT:      -4.6     13.304     13.985
REMARK  Name = min_compound2.pdb
REMARK  2 active torsions:
REMARK  status: ('A' for Active; 'I' for Inactive)
REMARK    1  A    between atoms: _1  and  _9
REMARK    2  A    between atoms: _2  and  _7
REMARK                            x       y       z     vdW  Elec       q    Type
REMARK                         _______ _______ _______ _____ _____    ______ ____
ROOT
ATOM      1  C   UNL     1     -14.546   0.369  -3.304  0.00  0.00    -0.035 A 
ATOM      2  C   UNL     1     -14.475  -1.108  -3.049  0.00  0.00    +0.044 C 
ATOM      3  C   UNL     1     -13.382   1.158  -3.293  0.00  0.00    +0.024 A 
ATOM      4  C   UNL     1     -13.475   2.510  -3.593  0.00  0.00    +0.111 A 
ATOM      5  N   UNL     1     -14.630   3.127  -3.908  0.00  0.00    -0.262 NA
ATOM      6  C   UNL     1     -15.745   2.354  -3.927  0.00  0.00    +0.124 A 
ATOM      7  C   UNL     1     -15.764   0.996  -3.619  0.00  0.00    +0.057 A 
ENDROOT
BRANCH   7   8
ATOM      8  C   UNL     1     -17.078   0.317  -3.680  0.00  0.00    +0.243 C 
ATOM      9  N   UNL     1     -17.841   0.309  -2.546  0.00  0.00    -0.325 N 
ATOM     10  H   UNL     1     -17.652   0.915  -1.761  0.00  0.00    +0.145 HD
ATOM     11  H   UNL     1     -18.780  -0.059  -2.642  0.00  0.00    +0.145 HD
ATOM     12  O   UNL     1     -17.494  -0.177  -4.720  0.00  0.00    -0.270 OA
ENDBRANCH   7   8
TORSDOF 1
ENDMDL
