MODEL 1
REMARK VINA RESULT:      -7.9      0.000      0.000
REMARK  Name = min_compound964.pdb
REMARK  4 active torsions:
REMARK  status: ('A' for Active; 'I' for Inactive)
REMARK    1  A    between atoms: _5  and  _7
REMARK    2  A    between atoms: _7  and  _9
REMARK    3  A    between atoms: _9  and  _10
REMARK    4  A    between atoms: _9  and  _16
REMARK                            x       y       z     vdW  Elec       q    Type
REMARK                         _______ _______ _______ _____ _____    ______ ____
ROOT
ATOM      1  P   UNL     1     -13.508   3.134 -17.231  0.00  0.00    +0.263 P 
ATOM      2  O   UNL     1     -12.634   3.013 -18.444  0.00  0.00    -0.281 OA
ENDROOT
BRANCH   1   3
ATOM      3  C   UNL     1     -13.609   4.614 -17.452  0.00  0.00    +0.041 A 
ATOM      4  C   UNL     1     -14.829   5.279 -17.744  0.00  0.00    +0.014 A 
ATOM      5  C   UNL     1     -14.926   6.659 -17.969  0.00  0.00    +0.001 A 
ATOM      6  C   UNL     1     -13.786   7.447 -17.939  0.00  0.00    +0.000 A 
ATOM      7  C   UNL     1     -12.555   6.852 -17.703  0.00  0.00    +0.001 A 
ATOM      8  C   UNL     1     -12.477   5.472 -17.478  0.00  0.00    +0.014 A 
ENDBRANCH   1   3
BRANCH   1   9
ATOM      9  C   UNL     1     -14.383   3.255 -16.019  0.00  0.00    +0.041 A 
ATOM     10  C   UNL     1     -15.590   2.524 -15.861  0.00  0.00    +0.014 A 
ATOM     11  C   UNL     1     -16.397   2.598 -14.719  0.00  0.00    +0.001 A 
ATOM     12  C   UNL     1     -16.018   3.403 -13.655  0.00  0.00    +0.000 A 
ATOM     13  C   UNL     1     -14.830   4.116 -13.731  0.00  0.00    +0.001 A 
ATOM     14  C   UNL     1     -14.033   4.027 -14.880  0.00  0.00    +0.014 A 
ENDBRANCH   1   9
BRANCH   1  15
ATOM     15  O   UNL     1     -13.408   1.653 -17.011  0.00  0.00    -0.318 OA
BRANCH  15  20
ATOM     16  C   UNL     1      -9.980   0.690 -15.228  0.00  0.00    +0.003 C 
ATOM     17  C   UNL     1      -9.661  -0.637 -16.030  0.00  0.00    +0.000 C 
ATOM     18  C   UNL     1     -10.160  -0.585 -17.444  0.00  0.00    +0.003 C 
ATOM     19  C   UNL     1     -11.751  -0.301 -17.024  0.00  0.00    +0.032 C 
ATOM     20  C   UNL     1     -12.168   0.910 -16.535  0.00  0.00    +0.127 C 
ATOM     21  C   UNL     1     -11.105   1.649 -15.779  0.00  0.00    +0.032 C 
ENDBRANCH  15  20
ENDBRANCH   1  15
TORSDOF 4
ENDMDL
MODEL 2
REMARK VINA RESULT:      -7.7      1.751      6.012
REMARK  Name = min_compound964.pdb
REMARK  4 active torsions:
REMARK  status: ('A' for Active; 'I' for Inactive)
REMARK    1  A    between atoms: _5  and  _7
REMARK    2  A    between atoms: _7  and  _9
REMARK    3  A    between atoms: _9  and  _10
REMARK    4  A    between atoms: _9  and  _16
REMARK                            x       y       z     vdW  Elec       q    Type
REMARK                         _______ _______ _______ _____ _____    ______ ____
ROOT
ATOM      1  P   UNL     1     -12.741   1.598 -16.573  0.00  0.00    +0.263 P 
ATOM      2  O   UNL     1     -13.532   0.327 -16.477  0.00  0.00    -0.281 OA
ENDROOT
BRANCH   1   3
ATOM      3  C   UNL     1     -11.469   0.804 -16.606  0.00  0.00    +0.041 A 
ATOM      4  C   UNL     1     -10.448   1.005 -17.573  0.00  0.00    +0.014 A 
ATOM      5  C   UNL     1      -9.266   0.254 -17.620  0.00  0.00    +0.001 A 
ATOM      6  C   UNL     1      -9.058  -0.767 -16.706  0.00  0.00    +0.000 A 
ATOM      7  C   UNL     1     -10.037  -1.045 -15.763  0.00  0.00    +0.001 A 
ATOM      8  C   UNL     1     -11.211  -0.283 -15.729  0.00  0.00    +0.014 A 
ENDBRANCH   1   3
BRANCH   1   9
ATOM      9  C   UNL     1     -11.950   2.869 -16.669  0.00  0.00    +0.041 A 
ATOM     10  C   UNL     1     -12.220   3.876 -17.632  0.00  0.00    +0.014 A 
ATOM     11  C   UNL     1     -11.515   5.084 -17.710  0.00  0.00    +0.001 A 
ATOM     12  C   UNL     1     -10.505   5.355 -16.798  0.00  0.00    +0.000 A 
ATOM     13  C   UNL     1     -10.216   4.427 -15.808  0.00  0.00    +0.001 A 
ATOM     14  C   UNL     1     -10.934   3.226 -15.744  0.00  0.00    +0.014 A 
ENDBRANCH   1   9
BRANCH   1  15
ATOM     15  O   UNL     1     -14.013   2.392 -16.540  0.00  0.00    -0.318 OA
BRANCH  15  20
ATOM     16  C   UNL     1     -16.740   2.630 -13.647  0.00  0.00    +0.003 C 
ATOM     17  C   UNL     1     -16.249   3.973 -12.969  0.00  0.00    +0.000 C 
ATOM     18  C   UNL     1     -15.644   4.926 -13.957  0.00  0.00    +0.003 C 
ATOM     19  C   UNL     1     -14.476   3.858 -14.490  0.00  0.00    +0.032 C 
ATOM     20  C   UNL     1     -14.781   2.785 -15.285  0.00  0.00    +0.127 C 
ATOM     21  C   UNL     1     -16.165   2.251 -15.067  0.00  0.00    +0.032 C 
ENDBRANCH  15  20
ENDBRANCH   1  15
TORSDOF 4
ENDMDL
MODEL 3
REMARK VINA RESULT:      -7.6      0.981      1.490
REMARK  Name = min_compound964.pdb
REMARK  4 active torsions:
REMARK  status: ('A' for Active; 'I' for Inactive)
REMARK    1  A    between atoms: _5  and  _7
REMARK    2  A    between atoms: _7  and  _9
REMARK    3  A    between atoms: _9  and  _10
REMARK    4  A    between atoms: _9  and  _16
REMARK                            x       y       z     vdW  Elec       q    Type
REMARK                         _______ _______ _______ _____ _____    ______ ____
ROOT
ATOM      1  P   UNL     1     -12.814   3.773 -16.382  0.00  0.00    +0.263 P 
ATOM      2  O   UNL     1     -11.557   4.070 -17.145  0.00  0.00    -0.281 OA
ENDROOT
BRANCH   1   3
ATOM      3  C   UNL     1     -13.537   4.831 -17.162  0.00  0.00    +0.041 A 
ATOM      4  C   UNL     1     -14.561   4.544 -18.104  0.00  0.00    +0.014 A 
ATOM      5  C   UNL     1     -15.226   5.526 -18.849  0.00  0.00    +0.001 A 
ATOM      6  C   UNL     1     -14.876   6.860 -18.706  0.00  0.00    +0.000 A 
ATOM      7  C   UNL     1     -13.852   7.204 -17.836  0.00  0.00    +0.001 A 
ATOM      8  C   UNL     1     -13.199   6.209 -17.097  0.00  0.00    +0.014 A 
ENDBRANCH   1   3
BRANCH   1   9
ATOM      9  C   UNL     1     -14.071   3.477 -15.619  0.00  0.00    +0.041 A 
ATOM     10  C   UNL     1     -14.909   2.370 -15.914  0.00  0.00    +0.014 A 
ATOM     11  C   UNL     1     -16.065   2.059 -15.187  0.00  0.00    +0.001 A 
ATOM     12  C   UNL     1     -16.431   2.840 -14.101  0.00  0.00    +0.000 A 
ATOM     13  C   UNL     1     -15.634   3.916 -13.738  0.00  0.00    +0.001 A 
ATOM     14  C   UNL     1     -14.479   4.211 -14.474  0.00  0.00    +0.014 A 
ENDBRANCH   1   9
BRANCH   1  15
ATOM     15  O   UNL     1     -12.091   2.716 -15.602  0.00  0.00    -0.318 OA
BRANCH  15  20
ATOM     16  C   UNL     1     -10.871  -0.330 -17.858  0.00  0.00    +0.003 C 
ATOM     17  C   UNL     1      -9.677  -0.835 -16.949  0.00  0.00    +0.000 C 
ATOM     18  C   UNL     1      -9.939  -0.616 -15.488  0.00  0.00    +0.003 C 
ATOM     19  C   UNL     1     -10.159   1.034 -15.627  0.00  0.00    +0.032 C 
ATOM     20  C   UNL     1     -11.284   1.571 -16.197  0.00  0.00    +0.127 C 
ATOM     21  C   UNL     1     -11.902   0.694 -17.244  0.00  0.00    +0.032 C 
ENDBRANCH  15  20
ENDBRANCH   1  15
TORSDOF 4
ENDMDL
MODEL 4
REMARK VINA RESULT:      -7.4      1.769      5.639
REMARK  Name = min_compound964.pdb
REMARK  4 active torsions:
REMARK  status: ('A' for Active; 'I' for Inactive)
REMARK    1  A    between atoms: _5  and  _7
REMARK    2  A    between atoms: _7  and  _9
REMARK    3  A    between atoms: _9  and  _10
REMARK    4  A    between atoms: _9  and  _16
REMARK                            x       y       z     vdW  Elec       q    Type
REMARK                         _______ _______ _______ _____ _____    ______ ____
ROOT
ATOM      1  P   UNL     1     -11.470   3.494 -16.850  0.00  0.00    +0.263 P 
ATOM      2  O   UNL     1     -10.147   3.756 -17.506  0.00  0.00    -0.281 OA
ENDROOT
BRANCH   1   3
ATOM      3  C   UNL     1     -11.097   2.053 -16.671  0.00  0.00    +0.041 A 
ATOM      4  C   UNL     1     -10.564   1.528 -15.464  0.00  0.00    +0.014 A 
ATOM      5  C   UNL     1     -10.196   0.186 -15.297  0.00  0.00    +0.001 A 
ATOM      6  C   UNL     1     -10.319  -0.702 -16.354  0.00  0.00    +0.000 A 
ATOM      7  C   UNL     1     -10.790  -0.243 -17.576  0.00  0.00    +0.001 A 
ATOM      8  C   UNL     1     -11.156   1.100 -17.723  0.00  0.00    +0.014 A 
ENDBRANCH   1   3
BRANCH   1   9
ATOM      9  C   UNL     1     -12.794   3.233 -16.193  0.00  0.00    +0.041 A 
ATOM     10  C   UNL     1     -13.280   4.001 -15.103  0.00  0.00    +0.014 A 
ATOM     11  C   UNL     1     -14.529   3.792 -14.505  0.00  0.00    +0.001 A 
ATOM     12  C   UNL     1     -15.373   2.804 -14.990  0.00  0.00    +0.000 A 
ATOM     13  C   UNL     1     -14.972   2.042 -16.079  0.00  0.00    +0.001 A 
ATOM     14  C   UNL     1     -13.721   2.267 -16.666  0.00  0.00    +0.014 A 
ENDBRANCH   1   9
BRANCH   1  15
ATOM     15  O   UNL     1     -11.844   4.936 -17.029  0.00  0.00    -0.318 OA
BRANCH  15  20
ATOM     16  C   UNL     1     -13.449   5.566 -20.618  0.00  0.00    +0.003 C 
ATOM     17  C   UNL     1     -12.798   6.976 -20.925  0.00  0.00    +0.000 C 
ATOM     18  C   UNL     1     -11.434   7.121 -20.316  0.00  0.00    +0.003 C 
ATOM     19  C   UNL     1     -11.944   6.829 -18.752  0.00  0.00    +0.032 C 
ATOM     20  C   UNL     1     -12.308   5.577 -18.329  0.00  0.00    +0.127 C 
ATOM     21  C   UNL     1     -12.875   4.717 -19.418  0.00  0.00    +0.032 C 
ENDBRANCH  15  20
ENDBRANCH   1  15
TORSDOF 4
ENDMDL
MODEL 5
REMARK VINA RESULT:      -7.3      1.604      4.897
REMARK  Name = min_compound964.pdb
REMARK  4 active torsions:
REMARK  status: ('A' for Active; 'I' for Inactive)
REMARK    1  A    between atoms: _5  and  _7
REMARK    2  A    between atoms: _7  and  _9
REMARK    3  A    between atoms: _9  and  _10
REMARK    4  A    between atoms: _9  and  _16
REMARK                            x       y       z     vdW  Elec       q    Type
REMARK                         _______ _______ _______ _____ _____    ______ ____
ROOT
ATOM      1  P   UNL     1     -13.914   3.864 -17.316  0.00  0.00    +0.263 P 
ATOM      2  O   UNL     1     -15.176   4.659 -17.476  0.00  0.00    -0.281 OA
ENDROOT
BRANCH   1   3
ATOM      3  C   UNL     1     -13.164   4.898 -18.104  0.00  0.00    +0.041 A 
ATOM      4  C   UNL     1     -12.613   6.072 -17.526  0.00  0.00    +0.014 A 
ATOM      5  C   UNL     1     -11.928   7.050 -18.260  0.00  0.00    +0.001 A 
ATOM      6  C   UNL     1     -11.783   6.911 -19.632  0.00  0.00    +0.000 A 
ATOM      7  C   UNL     1     -12.337   5.808 -20.265  0.00  0.00    +0.001 A 
ATOM      8  C   UNL     1     -13.016   4.840 -19.516  0.00  0.00    +0.014 A 
ENDBRANCH   1   3
BRANCH   1   9
ATOM      9  C   UNL     1     -12.651   3.070 -17.157  0.00  0.00    +0.041 A 
ATOM     10  C   UNL     1     -11.715   3.308 -16.117  0.00  0.00    +0.014 A 
ATOM     11  C   UNL     1     -10.552   2.551 -15.933  0.00  0.00    +0.001 A 
ATOM     12  C   UNL     1     -10.276   1.488 -16.782  0.00  0.00    +0.000 A 
ATOM     13  C   UNL     1     -11.170   1.180 -17.797  0.00  0.00    +0.001 A 
ATOM     14  C   UNL     1     -12.331   1.946 -17.964  0.00  0.00    +0.014 A 
ENDBRANCH   1   9
BRANCH   1  15
ATOM     15  O   UNL     1     -14.663   2.831 -16.529  0.00  0.00    -0.318 OA
BRANCH  15  20
ATOM     16  C   UNL     1     -17.062   2.741 -13.352  0.00  0.00    +0.003 C 
ATOM     17  C   UNL     1     -16.352   3.861 -12.487  0.00  0.00    +0.000 C 
ATOM     18  C   UNL     1     -15.731   4.931 -13.335  0.00  0.00    +0.003 C 
ATOM     19  C   UNL     1     -14.754   3.883 -14.195  0.00  0.00    +0.032 C 
ATOM     20  C   UNL     1     -15.259   3.033 -15.143  0.00  0.00    +0.127 C 
ATOM     21  C   UNL     1     -16.672   2.607 -14.875  0.00  0.00    +0.032 C 
ENDBRANCH  15  20
ENDBRANCH   1  15
TORSDOF 4
ENDMDL
MODEL 6
REMARK VINA RESULT:      -7.1     11.904     14.128
REMARK  Name = min_compound964.pdb
REMARK  4 active torsions:
REMARK  status: ('A' for Active; 'I' for Inactive)
REMARK    1  A    between atoms: _5  and  _7
REMARK    2  A    between atoms: _7  and  _9
REMARK    3  A    between atoms: _9  and  _10
REMARK    4  A    between atoms: _9  and  _16
REMARK                            x       y       z     vdW  Elec       q    Type
REMARK                         _______ _______ _______ _____ _____    ______ ____
ROOT
ATOM      1  P   UNL     1     -16.418  -0.793  -3.681  0.00  0.00    +0.263 P 
ATOM      2  O   UNL     1     -17.382  -1.942  -3.677  0.00  0.00    -0.281 OA
ENDROOT
BRANCH   1   3
ATOM      3  C   UNL     1     -16.694  -0.566  -5.138  0.00  0.00    +0.041 A 
ATOM      4  C   UNL     1     -17.970  -0.201  -5.643  0.00  0.00    +0.014 A 
ATOM      5  C   UNL     1     -18.238  -0.006  -7.004  0.00  0.00    +0.001 A 
ATOM      6  C   UNL     1     -17.235  -0.197  -7.942  0.00  0.00    +0.000 A 
ATOM      7  C   UNL     1     -15.977  -0.599  -7.518  0.00  0.00    +0.001 A 
ATOM      8  C   UNL     1     -15.726  -0.787  -6.154  0.00  0.00    +0.014 A 
ENDBRANCH   1   3
BRANCH   1   9
ATOM      9  C   UNL     1     -15.454   0.356  -3.685  0.00  0.00    +0.041 A 
ATOM     10  C   UNL     1     -15.855   1.700  -3.901  0.00  0.00    +0.014 A 
ATOM     11  C   UNL     1     -14.973   2.787  -3.871  0.00  0.00    +0.001 A 
ATOM     12  C   UNL     1     -13.629   2.579  -3.596  0.00  0.00    +0.000 A 
ATOM     13  C   UNL     1     -13.178   1.292  -3.340  0.00  0.00    +0.001 A 
ATOM     14  C   UNL     1     -14.076   0.218  -3.371  0.00  0.00    +0.014 A 
ENDBRANCH   1   9
BRANCH   1  15
ATOM     15  O   UNL     1     -16.141  -1.020  -2.224  0.00  0.00    -0.318 OA
BRANCH  15  20
ATOM     16  C   UNL     1     -15.405  -4.020   0.288  0.00  0.00    +0.003 C 
ATOM     17  C   UNL     1     -14.264  -4.745  -0.536  0.00  0.00    +0.000 C 
ATOM     18  C   UNL     1     -13.435  -3.782  -1.334  0.00  0.00    +0.003 C 
ATOM     19  C   UNL     1     -14.726  -3.155  -2.188  0.00  0.00    +0.032 C 
ATOM     20  C   UNL     1     -15.644  -2.320  -1.607  0.00  0.00    +0.127 C 
ATOM     21  C   UNL     1     -15.832  -2.563  -0.140  0.00  0.00    +0.032 C 
ENDBRANCH  15  20
ENDBRANCH   1  15
TORSDOF 4
ENDMDL
MODEL 7
REMARK VINA RESULT:      -7.1      1.583      5.827
REMARK  Name = min_compound964.pdb
REMARK  4 active torsions:
REMARK  status: ('A' for Active; 'I' for Inactive)
REMARK    1  A    between atoms: _5  and  _7
REMARK    2  A    between atoms: _7  and  _9
REMARK    3  A    between atoms: _9  and  _10
REMARK    4  A    between atoms: _9  and  _16
REMARK                            x       y       z     vdW  Elec       q    Type
REMARK                         _______ _______ _______ _____ _____    ______ ____
ROOT
ATOM      1  P   UNL     1     -13.688   2.326 -16.575  0.00  0.00    +0.263 P 
ATOM      2  O   UNL     1     -14.238   1.148 -15.826  0.00  0.00    -0.281 OA
ENDROOT
BRANCH   1   3
ATOM      3  C   UNL     1     -12.360   1.637 -16.682  0.00  0.00    +0.041 A 
ATOM      4  C   UNL     1     -12.029   0.737 -17.729  0.00  0.00    +0.014 A 
ATOM      5  C   UNL     1     -10.797   0.076 -17.823  0.00  0.00    +0.001 A 
ATOM      6  C   UNL     1      -9.832   0.267 -16.846  0.00  0.00    +0.000 A 
ATOM      7  C   UNL     1     -10.109   1.100 -15.771  0.00  0.00    +0.001 A 
ATOM      8  C   UNL     1     -11.345   1.754 -15.694  0.00  0.00    +0.014 A 
ENDBRANCH   1   3
BRANCH   1   9
ATOM      9  C   UNL     1     -13.138   3.504 -17.323  0.00  0.00    +0.041 A 
ATOM     10  C   UNL     1     -12.201   4.408 -16.759  0.00  0.00    +0.014 A 
ATOM     11  C   UNL     1     -11.651   5.490 -17.458  0.00  0.00    +0.001 A 
ATOM     12  C   UNL     1     -12.000   5.708 -18.782  0.00  0.00    +0.000 A 
ATOM     13  C   UNL     1     -12.884   4.838 -19.404  0.00  0.00    +0.001 A 
ATOM     14  C   UNL     1     -13.422   3.759 -18.691  0.00  0.00    +0.014 A 
ENDBRANCH   1   9
BRANCH   1  15
ATOM     15  O   UNL     1     -15.016   3.015 -16.468  0.00  0.00    -0.318 OA
BRANCH  15  20
ATOM     16  C   UNL     1     -15.603   4.783 -12.948  0.00  0.00    +0.003 C 
ATOM     17  C   UNL     1     -17.013   4.151 -12.598  0.00  0.00    +0.000 C 
ATOM     18  C   UNL     1     -17.169   2.763 -13.143  0.00  0.00    +0.003 C 
ATOM     19  C   UNL     1     -16.891   3.200 -14.731  0.00  0.00    +0.032 C 
ATOM     20  C   UNL     1     -15.643   3.539 -15.183  0.00  0.00    +0.127 C 
ATOM     21  C   UNL     1     -14.769   4.151 -14.129  0.00  0.00    +0.032 C 
ENDBRANCH  15  20
ENDBRANCH   1  15
TORSDOF 4
ENDMDL
MODEL 8
REMARK VINA RESULT:      -6.5      1.802      4.003
REMARK  Name = min_compound964.pdb
REMARK  4 active torsions:
REMARK  status: ('A' for Active; 'I' for Inactive)
REMARK    1  A    between atoms: _5  and  _7
REMARK    2  A    between atoms: _7  and  _9
REMARK    3  A    between atoms: _9  and  _10
REMARK    4  A    between atoms: _9  and  _16
REMARK                            x       y       z     vdW  Elec       q    Type
REMARK                         _______ _______ _______ _____ _____    ______ ____
ROOT
ATOM      1  P   UNL     1     -13.754   4.140 -16.317  0.00  0.00    +0.263 P 
ATOM      2  O   UNL     1     -14.274   3.371 -15.139  0.00  0.00    -0.281 OA
ENDROOT
BRANCH   1   3
ATOM      3  C   UNL     1     -15.156   4.534 -16.678  0.00  0.00    +0.041 A 
ATOM      4  C   UNL     1     -15.699   5.819 -16.414  0.00  0.00    +0.014 A 
ATOM      5  C   UNL     1     -17.013   6.186 -16.733  0.00  0.00    +0.001 A 
ATOM      6  C   UNL     1     -17.868   5.263 -17.314  0.00  0.00    +0.000 A 
ATOM      7  C   UNL     1     -17.414   3.975 -17.557  0.00  0.00    +0.001 A 
ATOM      8  C   UNL     1     -16.097   3.626 -17.235  0.00  0.00    +0.014 A 
ENDBRANCH   1   3
BRANCH   1   9
ATOM      9  C   UNL     1     -13.235   4.910 -17.495  0.00  0.00    +0.041 A 
ATOM     10  C   UNL     1     -12.441   6.079 -17.363  0.00  0.00    +0.014 A 
ATOM     11  C   UNL     1     -11.917   6.786 -18.453  0.00  0.00    +0.001 A 
ATOM     12  C   UNL     1     -12.149   6.338 -19.745  0.00  0.00    +0.000 A 
ATOM     13  C   UNL     1     -12.888   5.179 -19.940  0.00  0.00    +0.001 A 
ATOM     14  C   UNL     1     -13.401   4.483 -18.839  0.00  0.00    +0.014 A 
ENDBRANCH   1   9
BRANCH   1  15
ATOM     15  O   UNL     1     -12.353   3.747 -15.955  0.00  0.00    -0.318 OA
BRANCH  15  20
ATOM     16  C   UNL     1     -11.542   0.175 -17.519  0.00  0.00    +0.003 C 
ATOM     17  C   UNL     1     -10.149  -0.081 -16.813  0.00  0.00    +0.000 C 
ATOM     18  C   UNL     1     -10.076   0.536 -15.448  0.00  0.00    +0.003 C 
ATOM     19  C   UNL     1     -10.401   2.088 -15.976  0.00  0.00    +0.032 C 
ATOM     20  C   UNL     1     -11.651   2.467 -16.389  0.00  0.00    +0.127 C 
ATOM     21  C   UNL     1     -12.452   1.348 -16.982  0.00  0.00    +0.032 C 
ENDBRANCH  15  20
ENDBRANCH   1  15
TORSDOF 4
ENDMDL
MODEL 9
REMARK VINA RESULT:      -6.4      1.600      5.746
REMARK  Name = min_compound964.pdb
REMARK  4 active torsions:
REMARK  status: ('A' for Active; 'I' for Inactive)
REMARK    1  A    between atoms: _5  and  _7
REMARK    2  A    between atoms: _7  and  _9
REMARK    3  A    between atoms: _9  and  _10
REMARK    4  A    between atoms: _9  and  _16
REMARK                            x       y       z     vdW  Elec       q    Type
REMARK                         _______ _______ _______ _____ _____    ______ ____
ROOT
ATOM      1  P   UNL     1     -14.236   3.853 -17.190  0.00  0.00    +0.263 P 
ATOM      2  O   UNL     1     -13.543   4.128 -18.492  0.00  0.00    -0.281 OA
ENDROOT
BRANCH   1   3
ATOM      3  C   UNL     1     -12.981   3.233 -16.653  0.00  0.00    +0.041 A 
ATOM      4  C   UNL     1     -11.854   3.989 -16.233  0.00  0.00    +0.014 A 
ATOM      5  C   UNL     1     -10.672   3.414 -15.748  0.00  0.00    +0.001 A 
ATOM      6  C   UNL     1     -10.548   2.035 -15.684  0.00  0.00    +0.000 A 
ATOM      7  C   UNL     1     -11.595   1.237 -16.121  0.00  0.00    +0.001 A 
ATOM      8  C   UNL     1     -12.770   1.829 -16.601  0.00  0.00    +0.014 A 
ENDBRANCH   1   3
BRANCH   1   9
ATOM      9  C   UNL     1     -14.930   3.577 -15.889  0.00  0.00    +0.041 A 
ATOM     10  C   UNL     1     -14.630   4.276 -14.691  0.00  0.00    +0.014 A 
ATOM     11  C   UNL     1     -15.294   4.056 -13.478  0.00  0.00    +0.001 A 
ATOM     12  C   UNL     1     -16.321   3.126 -13.411  0.00  0.00    +0.000 A 
ATOM     13  C   UNL     1     -16.688   2.434 -14.556  0.00  0.00    +0.001 A 
ATOM     14  C   UNL     1     -16.014   2.669 -15.761  0.00  0.00    +0.014 A 
ENDBRANCH   1   9
BRANCH   1  15
ATOM     15  O   UNL     1     -15.492   4.472 -17.728  0.00  0.00    -0.318 OA
BRANCH  15  20
ATOM     16  C   UNL     1     -16.209   8.081 -19.252  0.00  0.00    +0.003 C 
ATOM     17  C   UNL     1     -15.872   8.950 -17.972  0.00  0.00    +0.000 C 
ATOM     18  C   UNL     1     -14.795   8.333 -17.129  0.00  0.00    +0.003 C 
ATOM     19  C   UNL     1     -15.605   6.892 -16.893  0.00  0.00    +0.032 C 
ATOM     20  C   UNL     1     -15.745   5.965 -17.892  0.00  0.00    +0.127 C 
ATOM     21  C   UNL     1     -15.775   6.564 -19.266  0.00  0.00    +0.032 C 
ENDBRANCH  15  20
ENDBRANCH   1  15
TORSDOF 4
ENDMDL
