MODEL 1
REMARK VINA RESULT:      -3.6      0.000      0.000
REMARK  Name = min_compound6.pdb
REMARK  1 active torsions:
REMARK  status: ('A' for Active; 'I' for Inactive)
REMARK    1  A    between atoms: _1  and  _8
REMARK                            x       y       z     vdW  Elec       q    Type
REMARK                         _______ _______ _______ _____ _____    ______ ____
ROOT
ATOM      1  C   UNL     1     -10.203   0.053 -15.995  0.00  0.00    +0.208 C 
ATOM      2  S   UNL     1     -11.761  -0.278 -16.665  0.00  0.00    -0.048 S 
ATOM      3  S   UNL     1     -12.368   1.676 -16.675  0.00  0.00    -0.031 S 
ATOM      4  C   UNL     1     -10.890   2.329 -15.998  0.00  0.00    +0.119 C 
ATOM      5  S   UNL     1     -10.608   3.936 -15.690  0.00  0.00    -0.027 S 
ATOM      6  N   UNL     1      -9.960   1.360 -15.739  0.00  0.00    -0.308 N 
ATOM      7  H   UNL     1      -9.063   1.607 -15.347  0.00  0.00    +0.149 HD
ENDROOT
BRANCH   1   8
ATOM      8  N   UNL     1      -9.321  -0.842 -15.746  0.00  0.00    -0.304 NA
ATOM      9  H   UNL     1      -9.517  -1.682 -16.291  0.00  0.00    +0.121 HD
ATOM     10  H   UNL     1      -8.403  -0.463 -16.009  0.00  0.00    +0.121 HD
ENDBRANCH   1   8
TORSDOF 1
ENDMDL
MODEL 2
REMARK VINA RESULT:      -3.6      1.585      3.235
REMARK  Name = min_compound6.pdb
REMARK  1 active torsions:
REMARK  status: ('A' for Active; 'I' for Inactive)
REMARK    1  A    between atoms: _1  and  _8
REMARK                            x       y       z     vdW  Elec       q    Type
REMARK                         _______ _______ _______ _____ _____    ______ ____
ROOT
ATOM      1  C   UNL     1     -10.630   2.939 -15.959  0.00  0.00    +0.208 C 
ATOM      2  S   UNL     1     -11.714   2.935 -17.305  0.00  0.00    -0.048 S 
ATOM      3  S   UNL     1     -11.602   0.915 -17.616  0.00  0.00    -0.031 S 
ATOM      4  C   UNL     1     -10.486   0.591 -16.304  0.00  0.00    +0.119 C 
ATOM      5  S   UNL     1      -9.893  -0.907 -15.902  0.00  0.00    -0.027 S 
ATOM      6  N   UNL     1     -10.139   1.723 -15.620  0.00  0.00    -0.308 N 
ATOM      7  H   UNL     1      -9.501   1.671 -14.840  0.00  0.00    +0.149 HD
ENDROOT
BRANCH   1   8
ATOM      8  N   UNL     1     -10.295   3.990 -15.308  0.00  0.00    -0.304 NA
ATOM      9  H   UNL     1     -10.986   4.725 -15.458  0.00  0.00    +0.121 HD
ATOM     10  H   UNL     1     -10.256   3.745 -14.311  0.00  0.00    +0.121 HD
ENDBRANCH   1   8
TORSDOF 1
ENDMDL
MODEL 3
REMARK VINA RESULT:      -3.5      1.498      1.627
REMARK  Name = min_compound6.pdb
REMARK  1 active torsions:
REMARK  status: ('A' for Active; 'I' for Inactive)
REMARK    1  A    between atoms: _1  and  _8
REMARK                            x       y       z     vdW  Elec       q    Type
REMARK                         _______ _______ _______ _____ _____    ______ ____
ROOT
ATOM      1  C   UNL     1     -10.624   1.229 -15.973  0.00  0.00    +0.208 C 
ATOM      2  S   UNL     1     -11.469   0.148 -17.025  0.00  0.00    -0.048 S 
ATOM      3  S   UNL     1     -12.292   1.627 -18.174  0.00  0.00    -0.031 S 
ATOM      4  C   UNL     1     -11.571   2.962 -17.296  0.00  0.00    +0.119 C 
ATOM      5  S   UNL     1     -11.785   4.569 -17.655  0.00  0.00    -0.027 S 
ATOM      6  N   UNL     1     -10.790   2.542 -16.255  0.00  0.00    -0.308 N 
ATOM      7  H   UNL     1     -10.318   3.215 -15.670  0.00  0.00    +0.149 HD
ENDROOT
BRANCH   1   8
ATOM      8  N   UNL     1      -9.889   0.852 -14.994  0.00  0.00    -0.304 NA
ATOM      9  H   UNL     1     -10.396   0.968 -14.116  0.00  0.00    +0.121 HD
ATOM     10  H   UNL     1      -9.658  -0.139 -15.135  0.00  0.00    +0.121 HD
ENDBRANCH   1   8
TORSDOF 1
ENDMDL
MODEL 4
REMARK VINA RESULT:      -3.5      2.645      3.656
REMARK  Name = min_compound6.pdb
REMARK  1 active torsions:
REMARK  status: ('A' for Active; 'I' for Inactive)
REMARK    1  A    between atoms: _1  and  _8
REMARK                            x       y       z     vdW  Elec       q    Type
REMARK                         _______ _______ _______ _____ _____    ______ ____
ROOT
ATOM      1  C   UNL     1     -12.311   1.584 -18.421  0.00  0.00    +0.208 C 
ATOM      2  S   UNL     1     -12.399   2.899 -17.304  0.00  0.00    -0.048 S 
ATOM      3  S   UNL     1     -11.204   2.017 -15.897  0.00  0.00    -0.031 S 
ATOM      4  C   UNL     1     -10.920   0.542 -16.800  0.00  0.00    +0.119 C 
ATOM      5  S   UNL     1      -9.990  -0.733 -16.281  0.00  0.00    -0.027 S 
ATOM      6  N   UNL     1     -11.556   0.538 -18.010  0.00  0.00    -0.308 N 
ATOM      7  H   UNL     1     -11.472  -0.257 -18.627  0.00  0.00    +0.149 HD
ENDROOT
BRANCH   1   8
ATOM      8  N   UNL     1     -12.901   1.564 -19.558  0.00  0.00    -0.304 NA
ATOM      9  H   UNL     1     -13.912   1.591 -19.425  0.00  0.00    +0.121 HD
ATOM     10  H   UNL     1     -12.597   2.392 -20.086  0.00  0.00    +0.121 HD
ENDBRANCH   1   8
TORSDOF 1
ENDMDL
MODEL 5
REMARK VINA RESULT:      -3.5     12.879     13.035
REMARK  Name = min_compound6.pdb
REMARK  1 active torsions:
REMARK  status: ('A' for Active; 'I' for Inactive)
REMARK    1  A    between atoms: _1  and  _8
REMARK                            x       y       z     vdW  Elec       q    Type
REMARK                         _______ _______ _______ _____ _____    ______ ____
ROOT
ATOM      1  C   UNL     1     -14.656  -1.246  -5.393  0.00  0.00    +0.208 C 
ATOM      2  S   UNL     1     -14.010   0.352  -5.259  0.00  0.00    -0.048 S 
ATOM      3  S   UNL     1     -14.000   0.368  -3.213  0.00  0.00    -0.031 S 
ATOM      4  C   UNL     1     -14.652  -1.246  -3.015  0.00  0.00    +0.119 C 
ATOM      5  S   UNL     1     -14.948  -1.986  -1.558  0.00  0.00    -0.027 S 
ATOM      6  N   UNL     1     -14.902  -1.860  -4.211  0.00  0.00    -0.308 N 
ATOM      7  H   UNL     1     -15.280  -2.796  -4.234  0.00  0.00    +0.149 HD
ENDROOT
BRANCH   1   8
ATOM      8  N   UNL     1     -14.895  -1.835  -6.505  0.00  0.00    -0.304 NA
ATOM      9  H   UNL     1     -14.843  -1.163  -7.271  0.00  0.00    +0.121 HD
ATOM     10  H   UNL     1     -14.186  -2.567  -6.633  0.00  0.00    +0.121 HD
ENDBRANCH   1   8
TORSDOF 1
ENDMDL
MODEL 6
REMARK VINA RESULT:      -3.4     10.776     10.931
REMARK  Name = min_compound6.pdb
REMARK  1 active torsions:
REMARK  status: ('A' for Active; 'I' for Inactive)
REMARK    1  A    between atoms: _1  and  _8
REMARK                            x       y       z     vdW  Elec       q    Type
REMARK                         _______ _______ _______ _____ _____    ______ ____
ROOT
ATOM      1  C   UNL     1     -15.164  -0.920  -6.517  0.00  0.00    +0.208 C 
ATOM      2  S   UNL     1     -14.417   0.601  -6.860  0.00  0.00    -0.048 S 
ATOM      3  S   UNL     1     -16.135   1.498  -7.516  0.00  0.00    -0.031 S 
ATOM      4  C   UNL     1     -17.170   0.105  -7.275  0.00  0.00    +0.119 C 
ATOM      5  S   UNL     1     -18.798   0.056  -7.601  0.00  0.00    -0.027 S 
ATOM      6  N   UNL     1     -16.491  -0.973  -6.778  0.00  0.00    -0.308 N 
ATOM      7  H   UNL     1     -16.975  -1.839  -6.595  0.00  0.00    +0.149 HD
ENDROOT
BRANCH   1   8
ATOM      8  N   UNL     1     -14.542  -1.938  -6.051  0.00  0.00    -0.304 NA
ATOM      9  H   UNL     1     -13.549  -1.724  -5.956  0.00  0.00    +0.121 HD
ATOM     10  H   UNL     1     -14.942  -2.158  -5.130  0.00  0.00    +0.121 HD
ENDBRANCH   1   8
TORSDOF 1
ENDMDL
MODEL 7
REMARK VINA RESULT:      -3.4     11.631     11.646
REMARK  Name = min_compound6.pdb
REMARK  1 active torsions:
REMARK  status: ('A' for Active; 'I' for Inactive)
REMARK    1  A    between atoms: _1  and  _8
REMARK                            x       y       z     vdW  Elec       q    Type
REMARK                         _______ _______ _______ _____ _____    ______ ____
ROOT
ATOM      1  C   UNL     1     -14.938  -0.722  -5.831  0.00  0.00    +0.208 C 
ATOM      2  S   UNL     1     -16.414  -0.008  -6.377  0.00  0.00    -0.048 S 
ATOM      3  S   UNL     1     -16.129   1.762  -5.390  0.00  0.00    -0.031 S 
ATOM      4  C   UNL     1     -14.589   1.327  -4.677  0.00  0.00    +0.119 C 
ATOM      5  S   UNL     1     -13.683   2.306  -3.688  0.00  0.00    -0.027 S 
ATOM      6  N   UNL     1     -14.189   0.066  -5.023  0.00  0.00    -0.308 N 
ATOM      7  H   UNL     1     -13.317  -0.305  -4.676  0.00  0.00    +0.149 HD
ENDROOT
BRANCH   1   8
ATOM      8  N   UNL     1     -14.549  -1.902  -6.145  0.00  0.00    -0.304 NA
ATOM      9  H   UNL     1     -13.596  -2.052  -5.815  0.00  0.00    +0.121 HD
ATOM     10  H   UNL     1     -15.184  -2.573  -5.696  0.00  0.00    +0.121 HD
ENDBRANCH   1   8
TORSDOF 1
ENDMDL
MODEL 8
REMARK VINA RESULT:      -3.4      2.174      2.596
REMARK  Name = min_compound6.pdb
REMARK  1 active torsions:
REMARK  status: ('A' for Active; 'I' for Inactive)
REMARK    1  A    between atoms: _1  and  _8
REMARK                            x       y       z     vdW  Elec       q    Type
REMARK                         _______ _______ _______ _____ _____    ______ ____
ROOT
ATOM      1  C   UNL     1     -10.601   0.087 -17.343  0.00  0.00    +0.208 C 
ATOM      2  S   UNL     1     -10.408   1.028 -15.906  0.00  0.00    -0.048 S 
ATOM      3  S   UNL     1     -11.774   2.453 -16.441  0.00  0.00    -0.031 S 
ATOM      4  C   UNL     1     -12.193   1.733 -17.984  0.00  0.00    +0.119 C 
ATOM      5  S   UNL     1     -13.299   2.349 -19.058  0.00  0.00    -0.027 S 
ATOM      6  N   UNL     1     -11.501   0.579 -18.227  0.00  0.00    -0.308 N 
ATOM      7  H   UNL     1     -11.651   0.067 -19.084  0.00  0.00    +0.149 HD
ENDROOT
BRANCH   1   8
ATOM      8  N   UNL     1      -9.961  -0.995 -17.586  0.00  0.00    -0.304 NA
ATOM      9  H   UNL     1     -10.619  -1.750 -17.781  0.00  0.00    +0.121 HD
ATOM     10  H   UNL     1      -9.365  -0.832 -18.407  0.00  0.00    +0.121 HD
ENDBRANCH   1   8
TORSDOF 1
ENDMDL
MODEL 9
REMARK VINA RESULT:      -3.3      2.053      3.062
REMARK  Name = min_compound6.pdb
REMARK  1 active torsions:
REMARK  status: ('A' for Active; 'I' for Inactive)
REMARK    1  A    between atoms: _1  and  _8
REMARK                            x       y       z     vdW  Elec       q    Type
REMARK                         _______ _______ _______ _____ _____    ______ ____
ROOT
ATOM      1  C   UNL     1     -10.638   2.156 -15.873  0.00  0.00    +0.208 C 
ATOM      2  S   UNL     1     -10.456   3.869 -15.730  0.00  0.00    -0.048 S 
ATOM      3  S   UNL     1     -11.686   4.309 -17.305  0.00  0.00    -0.031 S 
ATOM      4  C   UNL     1     -12.070   2.647 -17.705  0.00  0.00    +0.119 C 
ATOM      5  S   UNL     1     -13.070   2.168 -18.942  0.00  0.00    -0.027 S 
ATOM      6  N   UNL     1     -11.451   1.752 -16.877  0.00  0.00    -0.308 N 
ATOM      7  H   UNL     1     -11.591   0.761 -17.003  0.00  0.00    +0.149 HD
ENDROOT
BRANCH   1   8
ATOM      8  N   UNL     1     -10.065   1.305 -15.106  0.00  0.00    -0.304 NA
ATOM      9  H   UNL     1     -10.767   0.722 -14.650  0.00  0.00    +0.121 HD
ATOM     10  H   UNL     1      -9.449   0.721 -15.686  0.00  0.00    +0.121 HD
ENDBRANCH   1   8
TORSDOF 1
ENDMDL
