MODEL 1
REMARK VINA RESULT:      -7.6      0.000      0.000
REMARK  Name = min_compound960.pdb
REMARK  4 active torsions:
REMARK  status: ('A' for Active; 'I' for Inactive)
REMARK    1  A    between atoms: _1  and  _11
REMARK    2  A    between atoms: _9  and  _14
REMARK    3  A    between atoms: _10  and  _13
REMARK    4  A    between atoms: _11  and  _12
REMARK                            x       y       z     vdW  Elec       q    Type
REMARK                         _______ _______ _______ _____ _____    ______ ____
ROOT
ATOM      1  C   UNL     1     -13.457   7.032 -17.709  0.00  0.00    +0.096 A 
ATOM      2  N   UNL     1     -12.316   7.606 -18.123  0.00  0.00    -0.082 NA
ATOM      3  O   UNL     1     -11.346   6.621 -18.069  0.00  0.00    -0.354 OA
ATOM      4  C   UNL     1     -11.895   5.459 -17.623  0.00  0.00    +0.175 A 
ATOM      5  C   UNL     1     -11.250   4.222 -17.431  0.00  0.00    +0.076 A 
ATOM      6  C   UNL     1     -12.010   3.212 -16.962  0.00  0.00    +0.055 A 
ATOM      7  N   UNL     1     -13.381   3.375 -16.679  0.00  0.00    -0.310 N 
ATOM      8  C   UNL     1     -14.151   2.267 -16.122  0.00  0.00    +0.152 C 
ATOM      9  C   UNL     1     -14.067   4.596 -16.900  0.00  0.00    +0.264 A 
ATOM     10  O   UNL     1     -15.269   4.746 -16.704  0.00  0.00    -0.267 OA
ATOM     11  C   UNL     1     -13.235   5.676 -17.384  0.00  0.00    +0.109 A 
ENDROOT
BRANCH   6  12
ATOM     12  C   UNL     1     -11.352   1.906 -16.775  0.00  0.00    -0.001 A 
ATOM     13  C   UNL     1     -11.393   0.949 -17.800  0.00  0.00    +0.010 A 
ATOM     14  C   UNL     1     -10.760  -0.284 -17.636  0.00  0.00    +0.001 A 
ATOM     15  C   UNL     1     -10.085  -0.571 -16.451  0.00  0.00    +0.000 A 
ATOM     16  C   UNL     1     -10.039   0.375 -15.428  0.00  0.00    +0.001 A 
ATOM     17  C   UNL     1     -10.666   1.614 -15.590  0.00  0.00    +0.010 A 
ENDBRANCH   6  12
BRANCH   1  18
ATOM     18  C   UNL     1     -14.708   7.846 -17.691  0.00  0.00    +0.056 C 
ATOM     19  C   UNL     1     -15.107   8.362 -16.317  0.00  0.00    +0.010 C 
ENDBRANCH   1  18
TORSDOF 2
ENDMDL
MODEL 2
REMARK VINA RESULT:      -6.9      1.877      2.612
REMARK  Name = min_compound960.pdb
REMARK  4 active torsions:
REMARK  status: ('A' for Active; 'I' for Inactive)
REMARK    1  A    between atoms: _1  and  _11
REMARK    2  A    between atoms: _9  and  _14
REMARK    3  A    between atoms: _10  and  _13
REMARK    4  A    between atoms: _11  and  _12
REMARK                            x       y       z     vdW  Elec       q    Type
REMARK                         _______ _______ _______ _____ _____    ______ ____
ROOT
ATOM      1  C   UNL     1     -14.186   5.558 -19.294  0.00  0.00    +0.096 A 
ATOM      2  N   UNL     1     -15.021   4.838 -20.061  0.00  0.00    -0.082 NA
ATOM      3  O   UNL     1     -14.646   3.516 -19.906  0.00  0.00    -0.354 OA
ATOM      4  C   UNL     1     -13.589   3.435 -19.053  0.00  0.00    +0.175 A 
ATOM      5  C   UNL     1     -12.914   2.273 -18.630  0.00  0.00    +0.076 A 
ATOM      6  C   UNL     1     -11.878   2.452 -17.786  0.00  0.00    +0.055 A 
ATOM      7  N   UNL     1     -11.484   3.731 -17.343  0.00  0.00    -0.310 N 
ATOM      8  C   UNL     1     -10.323   3.879 -16.472  0.00  0.00    +0.152 C 
ATOM      9  C   UNL     1     -12.169   4.914 -17.719  0.00  0.00    +0.264 A 
ATOM     10  O   UNL     1     -11.872   6.031 -17.309  0.00  0.00    -0.267 OA
ATOM     11  C   UNL     1     -13.265   4.709 -18.640  0.00  0.00    +0.109 A 
ENDROOT
BRANCH   6  12
ATOM     12  C   UNL     1     -11.174   1.244 -17.319  0.00  0.00    -0.001 A 
ATOM     13  C   UNL     1     -11.871   0.263 -16.598  0.00  0.00    +0.010 A 
ATOM     14  C   UNL     1     -11.216  -0.891 -16.165  0.00  0.00    +0.001 A 
ATOM     15  C   UNL     1      -9.863  -1.073 -16.447  0.00  0.00    +0.000 A 
ATOM     16  C   UNL     1      -9.163  -0.103 -17.164  0.00  0.00    +0.001 A 
ATOM     17  C   UNL     1      -9.817   1.051 -17.606  0.00  0.00    +0.010 A 
ENDBRANCH   6  12
BRANCH   1  18
ATOM     18  C   UNL     1     -14.365   7.038 -19.224  0.00  0.00    +0.056 C 
ATOM     19  C   UNL     1     -14.972   7.542 -17.924  0.00  0.00    +0.010 C 
ENDBRANCH   1  18
TORSDOF 2
ENDMDL
MODEL 3
REMARK VINA RESULT:      -6.8      1.271      2.769
REMARK  Name = min_compound960.pdb
REMARK  4 active torsions:
REMARK  status: ('A' for Active; 'I' for Inactive)
REMARK    1  A    between atoms: _1  and  _11
REMARK    2  A    between atoms: _9  and  _14
REMARK    3  A    between atoms: _10  and  _13
REMARK    4  A    between atoms: _11  and  _12
REMARK                            x       y       z     vdW  Elec       q    Type
REMARK                         _______ _______ _______ _____ _____    ______ ____
ROOT
ATOM      1  C   UNL     1     -14.957   5.900 -16.535  0.00  0.00    +0.096 A 
ATOM      2  N   UNL     1     -16.053   5.242 -16.121  0.00  0.00    -0.082 NA
ATOM      3  O   UNL     1     -15.674   3.921 -15.964  0.00  0.00    -0.354 OA
ATOM      4  C   UNL     1     -14.360   3.779 -16.284  0.00  0.00    +0.175 A 
ATOM      5  C   UNL     1     -13.590   2.599 -16.254  0.00  0.00    +0.076 A 
ATOM      6  C   UNL     1     -12.302   2.709 -16.634  0.00  0.00    +0.055 A 
ATOM      7  N   UNL     1     -11.742   3.938 -17.039  0.00  0.00    -0.310 N 
ATOM      8  C   UNL     1     -10.357   3.998 -17.493  0.00  0.00    +0.152 C 
ATOM      9  C   UNL     1     -12.480   5.149 -17.042  0.00  0.00    +0.264 A 
ATOM     10  O   UNL     1     -12.000   6.236 -17.346  0.00  0.00    -0.267 OA
ATOM     11  C   UNL     1     -13.865   5.012 -16.652  0.00  0.00    +0.109 A 
ENDROOT
BRANCH   6  12
ATOM     12  C   UNL     1     -11.480   1.487 -16.588  0.00  0.00    -0.001 A 
ATOM     13  C   UNL     1     -10.659   1.237 -15.478  0.00  0.00    +0.010 A 
ATOM     14  C   UNL     1      -9.889   0.074 -15.420  0.00  0.00    +0.001 A 
ATOM     15  C   UNL     1      -9.931  -0.845 -16.468  0.00  0.00    +0.000 A 
ATOM     16  C   UNL     1     -10.745  -0.604 -17.574  0.00  0.00    +0.001 A 
ATOM     17  C   UNL     1     -11.523   0.556 -17.633  0.00  0.00    +0.010 A 
ENDBRANCH   6  12
BRANCH   1  18
ATOM     18  C   UNL     1     -15.044   7.373 -16.761  0.00  0.00    +0.056 C 
ATOM     19  C   UNL     1     -15.177   8.201 -15.492  0.00  0.00    +0.010 C 
ENDBRANCH   1  18
TORSDOF 2
ENDMDL
MODEL 4
REMARK VINA RESULT:      -6.8      1.533      2.787
REMARK  Name = min_compound960.pdb
REMARK  4 active torsions:
REMARK  status: ('A' for Active; 'I' for Inactive)
REMARK    1  A    between atoms: _1  and  _11
REMARK    2  A    between atoms: _9  and  _14
REMARK    3  A    between atoms: _10  and  _13
REMARK    4  A    between atoms: _11  and  _12
REMARK                            x       y       z     vdW  Elec       q    Type
REMARK                         _______ _______ _______ _____ _____    ______ ____
ROOT
ATOM      1  C   UNL     1     -15.724   6.040 -15.857  0.00  0.00    +0.096 A 
ATOM      2  N   UNL     1     -16.618   5.393 -15.091  0.00  0.00    -0.082 NA
ATOM      3  O   UNL     1     -16.099   4.129 -14.876  0.00  0.00    -0.354 OA
ATOM      4  C   UNL     1     -14.901   4.010 -15.510  0.00  0.00    +0.175 A 
ATOM      5  C   UNL     1     -14.050   2.887 -15.535  0.00  0.00    +0.076 A 
ATOM      6  C   UNL     1     -12.914   3.008 -16.251  0.00  0.00    +0.055 A 
ATOM      7  N   UNL     1     -12.583   4.193 -16.938  0.00  0.00    -0.310 N 
ATOM      8  C   UNL     1     -11.368   4.259 -17.743  0.00  0.00    +0.152 C 
ATOM      9  C   UNL     1     -13.399   5.353 -16.898  0.00  0.00    +0.264 A 
ATOM     10  O   UNL     1     -13.108   6.408 -17.451  0.00  0.00    -0.267 OA
ATOM     11  C   UNL     1     -14.624   5.202 -16.144  0.00  0.00    +0.109 A 
ENDROOT
BRANCH   6  12
ATOM     12  C   UNL     1     -12.004   1.848 -16.270  0.00  0.00    -0.001 A 
ATOM     13  C   UNL     1     -12.268   0.768 -17.125  0.00  0.00    +0.010 A 
ATOM     14  C   UNL     1     -11.403  -0.328 -17.161  0.00  0.00    +0.001 A 
ATOM     15  C   UNL     1     -10.273  -0.352 -16.345  0.00  0.00    +0.000 A 
ATOM     16  C   UNL     1     -10.004   0.718 -15.494  0.00  0.00    +0.001 A 
ATOM     17  C   UNL     1     -10.863   1.820 -15.460  0.00  0.00    +0.010 A 
ENDBRANCH   6  12
BRANCH   1  18
ATOM     18  C   UNL     1     -15.991   7.459 -16.234  0.00  0.00    +0.056 C 
ATOM     19  C   UNL     1     -15.320   8.489 -15.339  0.00  0.00    +0.010 C 
ENDBRANCH   1  18
TORSDOF 2
ENDMDL
MODEL 5
REMARK VINA RESULT:      -6.6      2.309      2.686
REMARK  Name = min_compound960.pdb
REMARK  4 active torsions:
REMARK  status: ('A' for Active; 'I' for Inactive)
REMARK    1  A    between atoms: _1  and  _11
REMARK    2  A    between atoms: _9  and  _14
REMARK    3  A    between atoms: _10  and  _13
REMARK    4  A    between atoms: _11  and  _12
REMARK                            x       y       z     vdW  Elec       q    Type
REMARK                         _______ _______ _______ _____ _____    ______ ____
ROOT
ATOM      1  C   UNL     1     -15.660   5.256 -16.128  0.00  0.00    +0.096 A 
ATOM      2  N   UNL     1     -15.501   5.380 -14.800  0.00  0.00    -0.082 NA
ATOM      3  O   UNL     1     -14.504   4.489 -14.445  0.00  0.00    -0.354 OA
ATOM      4  C   UNL     1     -14.064   3.828 -15.550  0.00  0.00    +0.175 A 
ATOM      5  C   UNL     1     -13.057   2.845 -15.618  0.00  0.00    +0.076 A 
ATOM      6  C   UNL     1     -12.808   2.321 -16.835  0.00  0.00    +0.055 A 
ATOM      7  N   UNL     1     -13.510   2.732 -17.986  0.00  0.00    -0.310 N 
ATOM      8  C   UNL     1     -13.242   2.099 -19.273  0.00  0.00    +0.152 C 
ATOM      9  C   UNL     1     -14.499   3.748 -17.956  0.00  0.00    +0.264 A 
ATOM     10  O   UNL     1     -15.089   4.153 -18.952  0.00  0.00    -0.267 OA
ATOM     11  C   UNL     1     -14.770   4.286 -16.641  0.00  0.00    +0.109 A 
ENDROOT
BRANCH   6  12
ATOM     12  C   UNL     1     -11.744   1.305 -16.926  0.00  0.00    -0.001 A 
ATOM     13  C   UNL     1     -10.453   1.679 -17.331  0.00  0.00    +0.010 A 
ATOM     14  C   UNL     1      -9.436   0.725 -17.405  0.00  0.00    +0.001 A 
ATOM     15  C   UNL     1      -9.699  -0.604 -17.076  0.00  0.00    +0.000 A 
ATOM     16  C   UNL     1     -10.979  -0.982 -16.672  0.00  0.00    +0.001 A 
ATOM     17  C   UNL     1     -11.998  -0.030 -16.590  0.00  0.00    +0.010 A 
ENDBRANCH   6  12
BRANCH   1  18
ATOM     18  C   UNL     1     -16.656   6.126 -16.819  0.00  0.00    +0.056 C 
ATOM     19  C   UNL     1     -16.073   7.382 -17.447  0.00  0.00    +0.010 C 
ENDBRANCH   1  18
TORSDOF 2
ENDMDL
MODEL 6
REMARK VINA RESULT:      -6.4      2.199      6.367
REMARK  Name = min_compound960.pdb
REMARK  4 active torsions:
REMARK  status: ('A' for Active; 'I' for Inactive)
REMARK    1  A    between atoms: _1  and  _11
REMARK    2  A    between atoms: _9  and  _14
REMARK    3  A    between atoms: _10  and  _13
REMARK    4  A    between atoms: _11  and  _12
REMARK                            x       y       z     vdW  Elec       q    Type
REMARK                         _______ _______ _______ _____ _____    ______ ____
ROOT
ATOM      1  C   UNL     1     -11.050   1.014 -16.775  0.00  0.00    +0.096 A 
ATOM      2  N   UNL     1     -10.506   1.227 -15.565  0.00  0.00    -0.082 NA
ATOM      3  O   UNL     1     -11.020   2.430 -15.116  0.00  0.00    -0.354 OA
ATOM      4  C   UNL     1     -11.866   2.945 -16.048  0.00  0.00    +0.175 A 
ATOM      5  C   UNL     1     -12.596   4.148 -15.975  0.00  0.00    +0.076 A 
ATOM      6  C   UNL     1     -13.362   4.454 -17.041  0.00  0.00    +0.055 A 
ATOM      7  N   UNL     1     -13.440   3.618 -18.174  0.00  0.00    -0.310 N 
ATOM      8  C   UNL     1     -14.241   4.016 -19.326  0.00  0.00    +0.152 C 
ATOM      9  C   UNL     1     -12.750   2.381 -18.259  0.00  0.00    +0.264 A 
ATOM     10  O   UNL     1     -12.839   1.617 -19.215  0.00  0.00    -0.267 OA
ATOM     11  C   UNL     1     -11.916   2.077 -17.118  0.00  0.00    +0.109 A 
ENDROOT
BRANCH   6  12
ATOM     12  C   UNL     1     -14.146   5.700 -16.972  0.00  0.00    -0.001 A 
ATOM     13  C   UNL     1     -15.431   5.687 -16.409  0.00  0.00    +0.010 A 
ATOM     14  C   UNL     1     -16.174   6.866 -16.326  0.00  0.00    +0.001 A 
ATOM     15  C   UNL     1     -15.641   8.063 -16.802  0.00  0.00    +0.000 A 
ATOM     16  C   UNL     1     -14.365   8.084 -17.362  0.00  0.00    +0.001 A 
ATOM     17  C   UNL     1     -13.614   6.907 -17.441  0.00  0.00    +0.010 A 
ENDBRANCH   6  12
BRANCH   1  18
ATOM     18  C   UNL     1     -10.710  -0.240 -17.508  0.00  0.00    +0.056 C 
ATOM     19  C   UNL     1      -9.608  -1.069 -16.867  0.00  0.00    +0.010 C 
ENDBRANCH   1  18
TORSDOF 2
ENDMDL
MODEL 7
REMARK VINA RESULT:      -6.3      2.897      3.424
REMARK  Name = min_compound960.pdb
REMARK  4 active torsions:
REMARK  status: ('A' for Active; 'I' for Inactive)
REMARK    1  A    between atoms: _1  and  _11
REMARK    2  A    between atoms: _9  and  _14
REMARK    3  A    between atoms: _10  and  _13
REMARK    4  A    between atoms: _11  and  _12
REMARK                            x       y       z     vdW  Elec       q    Type
REMARK                         _______ _______ _______ _____ _____    ______ ____
ROOT
ATOM      1  C   UNL     1     -15.398   3.960 -20.388  0.00  0.00    +0.096 A 
ATOM      2  N   UNL     1     -15.131   3.451 -21.602  0.00  0.00    -0.082 NA
ATOM      3  O   UNL     1     -14.127   2.518 -21.418  0.00  0.00    -0.354 OA
ATOM      4  C   UNL     1     -13.786   2.464 -20.102  0.00  0.00    +0.175 A 
ATOM      5  C   UNL     1     -12.813   1.642 -19.500  0.00  0.00    +0.076 A 
ATOM      6  C   UNL     1     -12.644   1.783 -18.170  0.00  0.00    +0.055 A 
ATOM      7  N   UNL     1     -13.400   2.699 -17.411  0.00  0.00    -0.310 N 
ATOM      8  C   UNL     1     -13.146   2.855 -15.983  0.00  0.00    +0.152 C 
ATOM      9  C   UNL     1     -14.415   3.510 -17.982  0.00  0.00    +0.264 A 
ATOM     10  O   UNL     1     -15.115   4.280 -17.333  0.00  0.00    -0.267 OA
ATOM     11  C   UNL     1     -14.570   3.364 -19.412  0.00  0.00    +0.109 A 
ENDROOT
BRANCH   6  12
ATOM     12  C   UNL     1     -11.644   0.916 -17.522  0.00  0.00    -0.001 A 
ATOM     13  C   UNL     1     -10.276   1.179 -17.692  0.00  0.00    +0.010 A 
ATOM     14  C   UNL     1      -9.322   0.371 -17.070  0.00  0.00    +0.001 A 
ATOM     15  C   UNL     1      -9.725  -0.702 -16.277  0.00  0.00    +0.000 A 
ATOM     16  C   UNL     1     -11.082  -0.969 -16.102  0.00  0.00    +0.001 A 
ATOM     17  C   UNL     1     -12.041  -0.159 -16.718  0.00  0.00    +0.010 A 
ENDBRANCH   6  12
BRANCH   1  18
ATOM     18  C   UNL     1     -16.478   4.982 -20.257  0.00  0.00    +0.056 C 
ATOM     19  C   UNL     1     -17.615   4.835 -21.256  0.00  0.00    +0.010 C 
ENDBRANCH   1  18
TORSDOF 2
ENDMDL
MODEL 8
REMARK VINA RESULT:      -6.2      3.367      5.323
REMARK  Name = min_compound960.pdb
REMARK  4 active torsions:
REMARK  status: ('A' for Active; 'I' for Inactive)
REMARK    1  A    between atoms: _1  and  _11
REMARK    2  A    between atoms: _9  and  _14
REMARK    3  A    between atoms: _10  and  _13
REMARK    4  A    between atoms: _11  and  _12
REMARK                            x       y       z     vdW  Elec       q    Type
REMARK                         _______ _______ _______ _____ _____    ______ ____
ROOT
ATOM      1  C   UNL     1     -12.851   5.107 -18.063  0.00  0.00    +0.096 A 
ATOM      2  N   UNL     1     -12.027   4.048 -18.002  0.00  0.00    -0.082 NA
ATOM      3  O   UNL     1     -12.327   3.393 -16.821  0.00  0.00    -0.354 OA
ATOM      4  C   UNL     1     -13.323   4.053 -16.170  0.00  0.00    +0.175 A 
ATOM      5  C   UNL     1     -13.919   3.711 -14.939  0.00  0.00    +0.076 A 
ATOM      6  C   UNL     1     -14.884   4.537 -14.487  0.00  0.00    +0.055 A 
ATOM      7  N   UNL     1     -15.286   5.683 -15.203  0.00  0.00    -0.310 N 
ATOM      8  C   UNL     1     -16.299   6.575 -14.649  0.00  0.00    +0.152 C 
ATOM      9  C   UNL     1     -14.734   6.030 -16.463  0.00  0.00    +0.264 A 
ATOM     10  O   UNL     1     -15.102   6.996 -17.123  0.00  0.00    -0.267 OA
ATOM     11  C   UNL     1     -13.686   5.147 -16.925  0.00  0.00    +0.109 A 
ENDROOT
BRANCH   6  12
ATOM     12  C   UNL     1     -15.530   4.182 -13.211  0.00  0.00    -0.001 A 
ATOM     13  C   UNL     1     -15.013   4.676 -12.004  0.00  0.00    +0.010 A 
ATOM     14  C   UNL     1     -15.627   4.356 -10.792  0.00  0.00    +0.001 A 
ATOM     15  C   UNL     1     -16.760   3.543 -10.777  0.00  0.00    +0.000 A 
ATOM     16  C   UNL     1     -17.281   3.050 -11.972  0.00  0.00    +0.001 A 
ATOM     17  C   UNL     1     -16.672   3.373 -13.188  0.00  0.00    +0.010 A 
ENDBRANCH   6  12
BRANCH   1  18
ATOM     18  C   UNL     1     -12.789   6.000 -19.258  0.00  0.00    +0.056 C 
ATOM     19  C   UNL     1     -11.857   7.192 -19.110  0.00  0.00    +0.010 C 
ENDBRANCH   1  18
TORSDOF 2
ENDMDL
MODEL 9
REMARK VINA RESULT:      -6.1     10.465     12.726
REMARK  Name = min_compound960.pdb
REMARK  4 active torsions:
REMARK  status: ('A' for Active; 'I' for Inactive)
REMARK    1  A    between atoms: _1  and  _11
REMARK    2  A    between atoms: _9  and  _14
REMARK    3  A    between atoms: _10  and  _13
REMARK    4  A    between atoms: _11  and  _12
REMARK                            x       y       z     vdW  Elec       q    Type
REMARK                         _______ _______ _______ _____ _____    ______ ____
ROOT
ATOM      1  C   UNL     1     -14.817  -0.661  -4.374  0.00  0.00    +0.096 A 
ATOM      2  N   UNL     1     -14.463  -1.730  -5.106  0.00  0.00    -0.082 NA
ATOM      3  O   UNL     1     -14.809  -1.436  -6.412  0.00  0.00    -0.354 OA
ATOM      4  C   UNL     1     -15.370  -0.198  -6.471  0.00  0.00    +0.175 A 
ATOM      5  C   UNL     1     -15.852   0.473  -7.613  0.00  0.00    +0.076 A 
ATOM      6  C   UNL     1     -16.383   1.696  -7.413  0.00  0.00    +0.055 A 
ATOM      7  N   UNL     1     -16.455   2.283  -6.133  0.00  0.00    -0.310 N 
ATOM      8  C   UNL     1     -17.087   3.586  -5.958  0.00  0.00    +0.152 C 
ATOM      9  C   UNL     1     -15.942   1.649  -4.972  0.00  0.00    +0.264 A 
ATOM     10  O   UNL     1     -15.952   2.160  -3.858  0.00  0.00    -0.267 OA
ATOM     11  C   UNL     1     -15.394   0.330  -5.199  0.00  0.00    +0.109 A 
ENDROOT
BRANCH   6  12
ATOM     12  C   UNL     1     -16.874   2.419  -8.600  0.00  0.00    -0.001 A 
ATOM     13  C   UNL     1     -15.966   3.083  -9.439  0.00  0.00    +0.010 A 
ATOM     14  C   UNL     1     -16.420   3.757 -10.573  0.00  0.00    +0.001 A 
ATOM     15  C   UNL     1     -17.781   3.774 -10.878  0.00  0.00    +0.000 A 
ATOM     16  C   UNL     1     -18.689   3.116 -10.050  0.00  0.00    +0.001 A 
ATOM     17  C   UNL     1     -18.237   2.433  -8.916  0.00  0.00    +0.010 A 
ENDBRANCH   6  12
BRANCH   1  18
ATOM     18  C   UNL     1     -14.534  -0.665  -2.908  0.00  0.00    +0.056 C 
ATOM     19  C   UNL     1     -15.362  -1.658  -2.107  0.00  0.00    +0.010 C 
ENDBRANCH   1  18
TORSDOF 2
ENDMDL
