MODEL 1
REMARK VINA RESULT:      -8.2      0.000      0.000
REMARK  Name = min_compound947.pdb
REMARK  1 active torsions:
REMARK  status: ('A' for Active; 'I' for Inactive)
REMARK    1  A    between atoms: _15  and  _16
REMARK                            x       y       z     vdW  Elec       q    Type
REMARK                         _______ _______ _______ _____ _____    ______ ____
ROOT
ATOM      1  C   UNL     1     -10.342  -0.395 -15.780  0.00  0.00    +0.001 A 
ATOM      2  C   UNL     1     -10.033   0.848 -15.368  0.00  0.00    +0.008 A 
ATOM      3  C   UNL     1     -10.615   2.019 -16.032  0.00  0.00    -0.014 A 
ATOM      4  C   UNL     1     -10.309   3.385 -15.619  0.00  0.00    +0.009 A 
ATOM      5  C   UNL     1     -10.868   4.424 -16.258  0.00  0.00    +0.016 A 
ATOM      6  C   UNL     1     -11.794   4.216 -17.381  0.00  0.00    +0.065 A 
ATOM      7  C   UNL     1     -12.348   5.285 -18.014  0.00  0.00    +0.193 A 
ATOM      8  O   UNL     1     -12.233   6.534 -17.835  0.00  0.00    -0.287 OA
ATOM      9  C   UNL     1     -13.265   4.999 -19.127  0.00  0.00    +0.098 A 
ATOM     10  C   UNL     1     -13.556   3.743 -19.519  0.00  0.00    +0.141 A 
ATOM     11  O   UNL     1     -12.986   2.651 -18.867  0.00  0.00    -0.454 OA
ATOM     12  C   UNL     1     -12.109   2.836 -17.804  0.00  0.00    +0.147 A 
ATOM     13  C   UNL     1     -11.551   1.778 -17.167  0.00  0.00    +0.025 A 
ATOM     14  C   UNL     1     -11.833   0.392 -17.551  0.00  0.00    +0.012 A 
ATOM     15  C   UNL     1     -11.255  -0.626 -16.888  0.00  0.00    +0.001 A 
ENDROOT
BRANCH  10  16
ATOM     16  C   UNL     1     -14.460   3.339 -20.621  0.00  0.00    +0.035 A 
ATOM     17  C   UNL     1     -15.504   4.077 -21.111  0.00  0.00    +0.122 A 
ATOM     18  N   UNL     1     -16.403   3.810 -22.120  0.00  0.00    -0.263 NA
ATOM     19  C   UNL     1     -16.174   2.596 -22.696  0.00  0.00    +0.111 A 
ATOM     20  C   UNL     1     -15.222   1.688 -22.399  0.00  0.00    +0.020 A 
ATOM     21  C   UNL     1     -14.321   2.052 -21.326  0.00  0.00    +0.014 A 
ENDBRANCH  10  16
TORSDOF 1
ENDMDL
MODEL 2
REMARK VINA RESULT:      -7.9      3.852      5.805
REMARK  Name = min_compound947.pdb
REMARK  1 active torsions:
REMARK  status: ('A' for Active; 'I' for Inactive)
REMARK    1  A    between atoms: _15  and  _16
REMARK                            x       y       z     vdW  Elec       q    Type
REMARK                         _______ _______ _______ _____ _____    ______ ____
ROOT
ATOM      1  C   UNL     1     -17.760   3.873 -13.956  0.00  0.00    +0.001 A 
ATOM      2  C   UNL     1     -17.397   5.035 -14.529  0.00  0.00    +0.008 A 
ATOM      3  C   UNL     1     -16.151   5.127 -15.298  0.00  0.00    -0.014 A 
ATOM      4  C   UNL     1     -15.717   6.365 -15.938  0.00  0.00    +0.009 A 
ATOM      5  C   UNL     1     -14.569   6.400 -16.631  0.00  0.00    +0.016 A 
ATOM      6  C   UNL     1     -13.725   5.202 -16.763  0.00  0.00    +0.065 A 
ATOM      7  C   UNL     1     -12.565   5.261 -17.471  0.00  0.00    +0.193 A 
ATOM      8  O   UNL     1     -11.998   6.203 -18.098  0.00  0.00    -0.287 OA
ATOM      9  C   UNL     1     -11.775   4.025 -17.560  0.00  0.00    +0.098 A 
ATOM     10  C   UNL     1     -12.164   2.875 -16.974  0.00  0.00    +0.141 A 
ATOM     11  O   UNL     1     -13.354   2.820 -16.250  0.00  0.00    -0.454 OA
ATOM     12  C   UNL     1     -14.159   3.945 -16.118  0.00  0.00    +0.147 A 
ATOM     13  C   UNL     1     -15.317   3.897 -15.415  0.00  0.00    +0.025 A 
ATOM     14  C   UNL     1     -15.787   2.675 -14.759  0.00  0.00    +0.012 A 
ATOM     15  C   UNL     1     -16.944   2.676 -14.072  0.00  0.00    +0.001 A 
ENDROOT
BRANCH  10  16
ATOM     16  C   UNL     1     -11.451   1.576 -16.997  0.00  0.00    +0.035 A 
ATOM     17  C   UNL     1     -12.009   0.353 -16.735  0.00  0.00    +0.122 A 
ATOM     18  N   UNL     1     -11.454  -0.908 -16.726  0.00  0.00    -0.263 NA
ATOM     19  C   UNL     1     -10.127  -0.882 -17.036  0.00  0.00    +0.111 A 
ATOM     20  C   UNL     1      -9.351   0.182 -17.330  0.00  0.00    +0.020 A 
ATOM     21  C   UNL     1     -10.016   1.466 -17.317  0.00  0.00    +0.014 A 
ENDBRANCH  10  16
TORSDOF 1
ENDMDL
MODEL 3
REMARK VINA RESULT:      -7.6      2.893      6.351
REMARK  Name = min_compound947.pdb
REMARK  1 active torsions:
REMARK  status: ('A' for Active; 'I' for Inactive)
REMARK    1  A    between atoms: _15  and  _16
REMARK                            x       y       z     vdW  Elec       q    Type
REMARK                         _______ _______ _______ _____ _____    ______ ____
ROOT
ATOM      1  C   UNL     1     -14.592   2.723 -23.445  0.00  0.00    +0.001 A 
ATOM      2  C   UNL     1     -15.435   3.422 -22.664  0.00  0.00    +0.008 A 
ATOM      3  C   UNL     1     -15.272   3.420 -21.206  0.00  0.00    -0.014 A 
ATOM      4  C   UNL     1     -16.162   4.164 -20.319  0.00  0.00    +0.009 A 
ATOM      5  C   UNL     1     -15.973   4.131 -18.991  0.00  0.00    +0.016 A 
ATOM      6  C   UNL     1     -14.874   3.351 -18.400  0.00  0.00    +0.065 A 
ATOM      7  C   UNL     1     -14.702   3.333 -17.051  0.00  0.00    +0.193 A 
ATOM      8  O   UNL     1     -15.334   3.887 -16.104  0.00  0.00    -0.287 OA
ATOM      9  C   UNL     1     -13.583   2.532 -16.533  0.00  0.00    +0.098 A 
ATOM     10  C   UNL     1     -12.754   1.841 -17.340  0.00  0.00    +0.141 A 
ATOM     11  O   UNL     1     -12.936   1.863 -18.723  0.00  0.00    -0.454 OA
ATOM     12  C   UNL     1     -13.970   2.596 -19.292  0.00  0.00    +0.147 A 
ATOM     13  C   UNL     1     -14.150   2.621 -20.635  0.00  0.00    +0.025 A 
ATOM     14  C   UNL     1     -13.280   1.889 -21.558  0.00  0.00    +0.012 A 
ATOM     15  C   UNL     1     -13.499   1.945 -22.885  0.00  0.00    +0.001 A 
ENDROOT
BRANCH  10  16
ATOM     16  C   UNL     1     -11.601   1.005 -16.931  0.00  0.00    +0.035 A 
ATOM     17  C   UNL     1     -10.917   1.109 -15.750  0.00  0.00    +0.122 A 
ATOM     18  N   UNL     1      -9.842   0.397 -15.264  0.00  0.00    -0.263 NA
ATOM     19  C   UNL     1      -9.427  -0.559 -16.142  0.00  0.00    +0.111 A 
ATOM     20  C   UNL     1      -9.927  -0.860 -17.358  0.00  0.00    +0.020 A 
ATOM     21  C   UNL     1     -11.054  -0.063 -17.788  0.00  0.00    +0.014 A 
ENDBRANCH  10  16
TORSDOF 1
ENDMDL
MODEL 4
REMARK VINA RESULT:      -7.4     15.751     17.856
REMARK  Name = min_compound947.pdb
REMARK  1 active torsions:
REMARK  status: ('A' for Active; 'I' for Inactive)
REMARK    1  A    between atoms: _15  and  _16
REMARK                            x       y       z     vdW  Elec       q    Type
REMARK                         _______ _______ _______ _____ _____    ______ ____
ROOT
ATOM      1  C   UNL     1     -14.101   2.424  -3.751  0.00  0.00    +0.001 A 
ATOM      2  C   UNL     1     -15.424   2.351  -3.986  0.00  0.00    +0.008 A 
ATOM      3  C   UNL     1     -16.150   1.095  -3.768  0.00  0.00    -0.014 A 
ATOM      4  C   UNL     1     -17.584   0.969  -4.010  0.00  0.00    +0.009 A 
ATOM      5  C   UNL     1     -18.204  -0.202  -3.795  0.00  0.00    +0.016 A 
ATOM      6  C   UNL     1     -17.461  -1.378  -3.316  0.00  0.00    +0.065 A 
ATOM      7  C   UNL     1     -18.111  -2.554  -3.106  0.00  0.00    +0.193 A 
ATOM      8  O   UNL     1     -19.323  -2.893  -3.243  0.00  0.00    -0.287 OA
ATOM      9  C   UNL     1     -17.304  -3.685  -2.627  0.00  0.00    +0.098 A 
ATOM     10  C   UNL     1     -15.979  -3.583  -2.400  0.00  0.00    +0.141 A 
ATOM     11  O   UNL     1     -15.318  -2.374  -2.617  0.00  0.00    -0.454 OA
ATOM     12  C   UNL     1     -16.010  -1.257  -3.070  0.00  0.00    +0.147 A 
ATOM     13  C   UNL     1     -15.371  -0.080  -3.282  0.00  0.00    +0.025 A 
ATOM     14  C   UNL     1     -13.934   0.087  -3.052  0.00  0.00    +0.012 A 
ATOM     15  C   UNL     1     -13.346   1.276  -3.277  0.00  0.00    +0.001 A 
ENDROOT
BRANCH  10  16
ATOM     16  C   UNL     1     -15.071  -4.650  -1.919  0.00  0.00    +0.035 A 
ATOM     17  C   UNL     1     -15.293  -5.997  -2.024  0.00  0.00    +0.122 A 
ATOM     18  N   UNL     1     -14.531  -7.071  -1.620  0.00  0.00    -0.263 NA
ATOM     19  C   UNL     1     -13.373  -6.676  -1.021  0.00  0.00    +0.111 A 
ATOM     20  C   UNL     1     -12.925  -5.424  -0.796  0.00  0.00    +0.020 A 
ATOM     21  C   UNL     1     -13.788  -4.357  -1.253  0.00  0.00    +0.014 A 
ENDBRANCH  10  16
TORSDOF 1
ENDMDL
MODEL 5
REMARK VINA RESULT:      -7.1      9.148      9.854
REMARK  Name = min_compound947.pdb
REMARK  1 active torsions:
REMARK  status: ('A' for Active; 'I' for Inactive)
REMARK    1  A    between atoms: _15  and  _16
REMARK                            x       y       z     vdW  Elec       q    Type
REMARK                         _______ _______ _______ _____ _____    ______ ____
ROOT
ATOM      1  C   UNL     1     -16.913   0.875  -5.997  0.00  0.00    +0.001 A 
ATOM      2  C   UNL     1     -17.174   2.146  -5.639  0.00  0.00    +0.008 A 
ATOM      3  C   UNL     1     -17.145   3.221  -6.637  0.00  0.00    -0.014 A 
ATOM      4  C   UNL     1     -17.421   4.613  -6.295  0.00  0.00    +0.009 A 
ATOM      5  C   UNL     1     -17.383   5.561  -7.244  0.00  0.00    +0.016 A 
ATOM      6  C   UNL     1     -17.064   5.225  -8.640  0.00  0.00    +0.065 A 
ATOM      7  C   UNL     1     -17.031   6.204  -9.584  0.00  0.00    +0.193 A 
ATOM      8  O   UNL     1     -17.231   7.452  -9.524  0.00  0.00    -0.287 OA
ATOM      9  C   UNL     1     -16.705   5.793 -10.958  0.00  0.00    +0.098 A 
ATOM     10  C   UNL     1     -16.448   4.512 -11.288  0.00  0.00    +0.141 A 
ATOM     11  O   UNL     1     -16.483   3.513 -10.315  0.00  0.00    -0.454 OA
ATOM     12  C   UNL     1     -16.783   3.819  -8.993  0.00  0.00    +0.147 A 
ATOM     13  C   UNL     1     -16.819   2.851  -8.044  0.00  0.00    +0.025 A 
ATOM     14  C   UNL     1     -16.548   1.444  -8.347  0.00  0.00    +0.012 A 
ATOM     15  C   UNL     1     -16.595   0.519  -7.370  0.00  0.00    +0.001 A 
ENDROOT
BRANCH  10  16
ATOM     16  C   UNL     1     -16.110   3.987 -12.631  0.00  0.00    +0.035 A 
ATOM     17  C   UNL     1     -15.061   4.395 -13.410  0.00  0.00    +0.122 A 
ATOM     18  N   UNL     1     -14.652   3.985 -14.660  0.00  0.00    -0.263 NA
ATOM     19  C   UNL     1     -15.458   3.009 -15.164  0.00  0.00    +0.111 A 
ATOM     20  C   UNL     1     -16.545   2.441 -14.603  0.00  0.00    +0.020 A 
ATOM     21  C   UNL     1     -16.903   2.931 -13.290  0.00  0.00    +0.014 A 
ENDBRANCH  10  16
TORSDOF 1
ENDMDL
MODEL 6
REMARK VINA RESULT:      -7.1     10.827     12.544
REMARK  Name = min_compound947.pdb
REMARK  1 active torsions:
REMARK  status: ('A' for Active; 'I' for Inactive)
REMARK    1  A    between atoms: _15  and  _16
REMARK                            x       y       z     vdW  Elec       q    Type
REMARK                         _______ _______ _______ _____ _____    ______ ____
ROOT
ATOM      1  C   UNL     1     -13.050   1.154  -2.806  0.00  0.00    +0.001 A 
ATOM      2  C   UNL     1     -13.455  -0.041  -3.272  0.00  0.00    +0.008 A 
ATOM      3  C   UNL     1     -14.229  -0.131  -4.514  0.00  0.00    -0.014 A 
ATOM      4  C   UNL     1     -14.690  -1.405  -5.058  0.00  0.00    +0.009 A 
ATOM      5  C   UNL     1     -15.395  -1.437  -6.199  0.00  0.00    +0.016 A 
ATOM      6  C   UNL     1     -15.721  -0.199  -6.924  0.00  0.00    +0.065 A 
ATOM      7  C   UNL     1     -16.437  -0.256  -8.079  0.00  0.00    +0.193 A 
ATOM      8  O   UNL     1     -16.932  -1.224  -8.728  0.00  0.00    -0.287 OA
ATOM      9  C   UNL     1     -16.724   1.021  -8.748  0.00  0.00    +0.098 A 
ATOM     10  C   UNL     1     -16.305   2.205  -8.258  0.00  0.00    +0.141 A 
ATOM     11  O   UNL     1     -15.571   2.257  -7.074  0.00  0.00    -0.454 OA
ATOM     12  C   UNL     1     -15.258   1.094  -6.380  0.00  0.00    +0.147 A 
ATOM     13  C   UNL     1     -14.544   1.139  -5.229  0.00  0.00    +0.025 A 
ATOM     14  C   UNL     1     -14.064   2.397  -4.651  0.00  0.00    +0.012 A 
ATOM     15  C   UNL     1     -13.359   2.391  -3.505  0.00  0.00    +0.001 A 
ENDROOT
BRANCH  10  16
ATOM     16  C   UNL     1     -16.535   3.546  -8.845  0.00  0.00    +0.035 A 
ATOM     17  C   UNL     1     -16.041   3.990 -10.042  0.00  0.00    +0.122 A 
ATOM     18  N   UNL     1     -16.185   5.201 -10.683  0.00  0.00    -0.263 NA
ATOM     19  C   UNL     1     -16.955   6.067  -9.967  0.00  0.00    +0.111 A 
ATOM     20  C   UNL     1     -17.552   5.875  -8.772  0.00  0.00    +0.020 A 
ATOM     21  C   UNL     1     -17.348   4.575  -8.171  0.00  0.00    +0.014 A 
ENDBRANCH  10  16
TORSDOF 1
ENDMDL
MODEL 7
REMARK VINA RESULT:      -7.1      2.086      6.041
REMARK  Name = min_compound947.pdb
REMARK  1 active torsions:
REMARK  status: ('A' for Active; 'I' for Inactive)
REMARK    1  A    between atoms: _15  and  _16
REMARK                            x       y       z     vdW  Elec       q    Type
REMARK                         _______ _______ _______ _____ _____    ______ ____
ROOT
ATOM      1  C   UNL     1     -15.879   3.629 -22.839  0.00  0.00    +0.001 A 
ATOM      2  C   UNL     1     -15.521   4.854 -22.413  0.00  0.00    +0.008 A 
ATOM      3  C   UNL     1     -14.608   5.007 -21.275  0.00  0.00    -0.014 A 
ATOM      4  C   UNL     1     -14.192   6.315 -20.777  0.00  0.00    +0.009 A 
ATOM      5  C   UNL     1     -13.355   6.405 -19.732  0.00  0.00    +0.016 A 
ATOM      6  C   UNL     1     -12.839   5.198 -19.068  0.00  0.00    +0.065 A 
ATOM      7  C   UNL     1     -11.991   5.314 -18.010  0.00  0.00    +0.193 A 
ATOM      8  O   UNL     1     -11.503   6.320 -17.417  0.00  0.00    -0.287 OA
ATOM      9  C   UNL     1     -11.517   4.065 -17.397  0.00  0.00    +0.098 A 
ATOM     10  C   UNL     1     -11.893   2.851 -17.846  0.00  0.00    +0.141 A 
ATOM     11  O   UNL     1     -12.762   2.738 -18.930  0.00  0.00    -0.454 OA
ATOM     12  C   UNL     1     -13.256   3.872 -19.566  0.00  0.00    +0.147 A 
ATOM     13  C   UNL     1     -14.101   3.767 -20.620  0.00  0.00    +0.025 A 
ATOM     14  C   UNL     1     -14.542   2.474 -21.149  0.00  0.00    +0.012 A 
ATOM     15  C   UNL     1     -15.383   2.422 -22.198  0.00  0.00    +0.001 A 
ENDROOT
BRANCH  10  16
ATOM     16  C   UNL     1     -11.480   1.533 -17.308  0.00  0.00    +0.035 A 
ATOM     17  C   UNL     1     -12.321   0.503 -16.983  0.00  0.00    +0.122 A 
ATOM     18  N   UNL     1     -12.058  -0.753 -16.482  0.00  0.00    -0.263 NA
ATOM     19  C   UNL     1     -10.723  -0.955 -16.294  0.00  0.00    +0.111 A 
ATOM     20  C   UNL     1      -9.700  -0.109 -16.533  0.00  0.00    +0.020 A 
ATOM     21  C   UNL     1     -10.068   1.188 -17.059  0.00  0.00    +0.014 A 
ENDBRANCH  10  16
TORSDOF 1
ENDMDL
MODEL 8
REMARK VINA RESULT:      -7.0     10.463     11.541
REMARK  Name = min_compound947.pdb
REMARK  1 active torsions:
REMARK  status: ('A' for Active; 'I' for Inactive)
REMARK    1  A    between atoms: _15  and  _16
REMARK                            x       y       z     vdW  Elec       q    Type
REMARK                         _______ _______ _______ _____ _____    ______ ____
ROOT
ATOM      1  C   UNL     1     -14.282  -0.677  -4.918  0.00  0.00    +0.001 A 
ATOM      2  C   UNL     1     -15.132   0.082  -4.202  0.00  0.00    +0.008 A 
ATOM      3  C   UNL     1     -15.880   1.169  -4.845  0.00  0.00    -0.014 A 
ATOM      4  C   UNL     1     -16.812   2.018  -4.110  0.00  0.00    +0.009 A 
ATOM      5  C   UNL     1     -17.473   3.000  -4.742  0.00  0.00    +0.016 A 
ATOM      6  C   UNL     1     -17.277   3.244  -6.179  0.00  0.00    +0.065 A 
ATOM      7  C   UNL     1     -17.958   4.245  -6.798  0.00  0.00    +0.193 A 
ATOM      8  O   UNL     1     -18.799   5.091  -6.375  0.00  0.00    -0.287 OA
ATOM      9  C   UNL     1     -17.710   4.429  -8.236  0.00  0.00    +0.098 A 
ATOM     10  C   UNL     1     -16.853   3.653  -8.927  0.00  0.00    +0.141 A 
ATOM     11  O   UNL     1     -16.157   2.628  -8.287  0.00  0.00    -0.454 OA
ATOM     12  C   UNL     1     -16.335   2.388  -6.929  0.00  0.00    +0.147 A 
ATOM     13  C   UNL     1     -15.661   1.393  -6.303  0.00  0.00    +0.025 A 
ATOM     14  C   UNL     1     -14.717   0.520  -7.005  0.00  0.00    +0.012 A 
ATOM     15  C   UNL     1     -14.072  -0.455  -6.339  0.00  0.00    +0.001 A 
ENDROOT
BRANCH  10  16
ATOM     16  C   UNL     1     -16.527   3.747 -10.369  0.00  0.00    +0.035 A 
ATOM     17  C   UNL     1     -17.177   3.093 -11.381  0.00  0.00    +0.122 A 
ATOM     18  N   UNL     1     -16.968   3.101 -12.742  0.00  0.00    -0.263 NA
ATOM     19  C   UNL     1     -15.929   3.911 -13.092  0.00  0.00    +0.111 A 
ATOM     20  C   UNL     1     -15.136   4.656 -12.294  0.00  0.00    +0.020 A 
ATOM     21  C   UNL     1     -15.427   4.587 -10.879  0.00  0.00    +0.014 A 
ENDBRANCH  10  16
TORSDOF 1
ENDMDL
MODEL 9
REMARK VINA RESULT:      -6.9      3.886      6.338
REMARK  Name = min_compound947.pdb
REMARK  1 active torsions:
REMARK  status: ('A' for Active; 'I' for Inactive)
REMARK    1  A    between atoms: _15  and  _16
REMARK                            x       y       z     vdW  Elec       q    Type
REMARK                         _______ _______ _______ _____ _____    ______ ____
ROOT
ATOM      1  C   UNL     1     -18.326   6.229 -15.280  0.00  0.00    +0.001 A 
ATOM      2  C   UNL     1     -17.702   7.264 -15.870  0.00  0.00    +0.008 A 
ATOM      3  C   UNL     1     -16.329   7.119 -16.367  0.00  0.00    -0.014 A 
ATOM      4  C   UNL     1     -15.612   8.214 -17.014  0.00  0.00    +0.009 A 
ATOM      5  C   UNL     1     -14.357   8.033 -17.452  0.00  0.00    +0.016 A 
ATOM      6  C   UNL     1     -13.677   6.739 -17.293  0.00  0.00    +0.065 A 
ATOM      7  C   UNL     1     -12.404   6.579 -17.745  0.00  0.00    +0.193 A 
ATOM      8  O   UNL     1     -11.601   7.368 -18.325  0.00  0.00    -0.287 OA
ATOM      9  C   UNL     1     -11.789   5.258 -17.551  0.00  0.00    +0.098 A 
ATOM     10  C   UNL     1     -12.438   4.238 -16.956  0.00  0.00    +0.141 A 
ATOM     11  O   UNL     1     -13.743   4.408 -16.494  0.00  0.00    -0.454 OA
ATOM     12  C   UNL     1     -14.396   5.627 -16.639  0.00  0.00    +0.147 A 
ATOM     13  C   UNL     1     -15.664   5.796 -16.192  0.00  0.00    +0.025 A 
ATOM     14  C   UNL     1     -16.417   4.723 -15.538  0.00  0.00    +0.012 A 
ATOM     15  C   UNL     1     -17.674   4.940 -15.111  0.00  0.00    +0.001 A 
ENDROOT
BRANCH  10  16
ATOM     16  C   UNL     1     -11.920   2.872 -16.708  0.00  0.00    +0.035 A 
ATOM     17  C   UNL     1     -10.793   2.561 -15.996  0.00  0.00    +0.122 A 
ATOM     18  N   UNL     1     -10.219   1.344 -15.703  0.00  0.00    -0.263 NA
ATOM     19  C   UNL     1     -10.928   0.307 -16.232  0.00  0.00    +0.111 A 
ATOM     20  C   UNL     1     -12.059   0.347 -16.965  0.00  0.00    +0.020 A 
ATOM     21  C   UNL     1     -12.593   1.666 -17.226  0.00  0.00    +0.014 A 
ENDBRANCH  10  16
TORSDOF 1
ENDMDL
