MODEL 1
REMARK VINA RESULT:      -6.8      0.000      0.000
REMARK  Name = min_compound922.pdb
REMARK  4 active torsions:
REMARK  status: ('A' for Active; 'I' for Inactive)
REMARK    1  A    between atoms: _1  and  _15
REMARK    2  A    between atoms: _2  and  _16
REMARK    3  A    between atoms: _3  and  _17
REMARK    4  A    between atoms: _6  and  _18
REMARK                            x       y       z     vdW  Elec       q    Type
REMARK                         _______ _______ _______ _____ _____    ______ ____
ROOT
ATOM      1  C   UNL     1     -10.604   1.395 -15.909  0.00  0.00    +0.123 A 
ATOM      2  C   UNL     1     -11.135   0.285 -16.576  0.00  0.00    -0.008 A 
ATOM      3  C   UNL     1     -10.806  -1.113 -16.133  0.00  0.00    +0.047 C 
ATOM      4  C   UNL     1     -11.951   0.487 -17.705  0.00  0.00    +0.015 A 
ATOM      5  C   UNL     1     -12.274   1.769 -18.155  0.00  0.00    -0.023 A 
ATOM      6  C   UNL     1     -11.736   2.861 -17.449  0.00  0.00    +0.015 A 
ATOM      7  C   UNL     1     -10.900   2.695 -16.329  0.00  0.00    -0.008 A 
ATOM      8  C   UNL     1     -10.348   3.910 -15.641  0.00  0.00    +0.047 C 
ENDROOT
BRANCH   5   9
ATOM      9  C   UNL     1     -13.109   2.076 -19.339  0.00  0.00    +0.028 C 
ATOM     10  C   UNL     1     -14.239   2.779 -19.512  0.00  0.00    +0.077 C 
ATOM     11  C   UNL     1     -14.847   2.896 -20.872  0.00  0.00    +0.256 C 
ATOM     12  N   UNL     1     -15.998   3.628 -20.806  0.00  0.00    -0.270 N 
ATOM     13  H   UNL     1     -16.539   3.795 -21.640  0.00  0.00    +0.156 HD
ATOM     14  C   UNL     1     -16.379   4.110 -19.594  0.00  0.00    +0.118 C 
ATOM     15  S   UNL     1     -17.753   4.999 -19.349  0.00  0.00    -0.027 S 
ATOM     16  O   UNL     1     -14.396   2.413 -21.898  0.00  0.00    -0.269 OA
ATOM     17  S   UNL     1     -15.210   3.645 -18.383  0.00  0.00    -0.061 S 
ENDBRANCH   5   9
BRANCH   1  18
ATOM     18  O   UNL     1      -9.784   1.148 -14.841  0.00  0.00    -0.506 OA
ATOM     19  H   UNL     1      -9.619   0.196 -14.769  0.00  0.00    +0.292 HD
ENDBRANCH   1  18
TORSDOF 2
ENDMDL
MODEL 2
REMARK VINA RESULT:      -6.7      0.210      2.106
REMARK  Name = min_compound922.pdb
REMARK  4 active torsions:
REMARK  status: ('A' for Active; 'I' for Inactive)
REMARK    1  A    between atoms: _1  and  _15
REMARK    2  A    between atoms: _2  and  _16
REMARK    3  A    between atoms: _3  and  _17
REMARK    4  A    between atoms: _6  and  _18
REMARK                            x       y       z     vdW  Elec       q    Type
REMARK                         _______ _______ _______ _____ _____    ______ ____
ROOT
ATOM      1  C   UNL     1     -10.675   1.451 -15.937  0.00  0.00    +0.123 A 
ATOM      2  C   UNL     1     -10.889   2.767 -16.362  0.00  0.00    -0.008 A 
ATOM      3  C   UNL     1     -10.319   3.929 -15.594  0.00  0.00    +0.047 C 
ATOM      4  C   UNL     1     -11.687   3.003 -17.496  0.00  0.00    +0.015 A 
ATOM      5  C   UNL     1     -12.241   1.953 -18.231  0.00  0.00    -0.023 A 
ATOM      6  C   UNL     1     -11.991   0.642 -17.784  0.00  0.00    +0.015 A 
ATOM      7  C   UNL     1     -11.215   0.372 -16.642  0.00  0.00    -0.008 A 
ATOM      8  C   UNL     1     -11.010  -1.054 -16.216  0.00  0.00    +0.047 C 
ENDROOT
BRANCH   5   9
ATOM      9  C   UNL     1     -13.104   2.105 -19.425  0.00  0.00    +0.028 C 
ATOM     10  C   UNL     1     -14.242   2.778 -19.660  0.00  0.00    +0.077 C 
ATOM     11  C   UNL     1     -14.882   2.720 -21.009  0.00  0.00    +0.256 C 
ATOM     12  N   UNL     1     -16.035   3.451 -21.010  0.00  0.00    -0.270 N 
ATOM     13  H   UNL     1     -16.595   3.510 -21.846  0.00  0.00    +0.156 HD
ATOM     14  C   UNL     1     -16.391   4.081 -19.860  0.00  0.00    +0.118 C 
ATOM     15  S   UNL     1     -17.765   4.989 -19.697  0.00  0.00    -0.027 S 
ATOM     16  O   UNL     1     -14.450   2.113 -21.976  0.00  0.00    -0.269 OA
ATOM     17  S   UNL     1     -15.193   3.776 -18.627  0.00  0.00    -0.061 S 
ENDBRANCH   5   9
BRANCH   1  18
ATOM     18  O   UNL     1      -9.926   1.274 -14.805  0.00  0.00    -0.506 OA
ATOM     19  H   UNL     1      -9.232   1.949 -14.763  0.00  0.00    +0.292 HD
ENDBRANCH   1  18
TORSDOF 2
ENDMDL
MODEL 3
REMARK VINA RESULT:      -6.5     15.117     17.092
REMARK  Name = min_compound922.pdb
REMARK  4 active torsions:
REMARK  status: ('A' for Active; 'I' for Inactive)
REMARK    1  A    between atoms: _1  and  _15
REMARK    2  A    between atoms: _2  and  _16
REMARK    3  A    between atoms: _3  and  _17
REMARK    4  A    between atoms: _6  and  _18
REMARK                            x       y       z     vdW  Elec       q    Type
REMARK                         _______ _______ _______ _____ _____    ______ ____
ROOT
ATOM      1  C   UNL     1     -14.244   0.622  -5.198  0.00  0.00    +0.123 A 
ATOM      2  C   UNL     1     -14.837  -0.629  -5.400  0.00  0.00    -0.008 A 
ATOM      3  C   UNL     1     -15.196  -1.099  -6.783  0.00  0.00    +0.047 C 
ATOM      4  C   UNL     1     -15.142  -1.434  -4.288  0.00  0.00    +0.015 A 
ATOM      5  C   UNL     1     -14.833  -1.031  -2.986  0.00  0.00    -0.023 A 
ATOM      6  C   UNL     1     -14.222   0.226  -2.822  0.00  0.00    +0.015 A 
ATOM      7  C   UNL     1     -13.922   1.065  -3.912  0.00  0.00    -0.008 A 
ATOM      8  C   UNL     1     -13.288   2.402  -3.654  0.00  0.00    +0.047 C 
ENDROOT
BRANCH   5   9
ATOM      9  C   UNL     1     -15.130  -1.802  -1.757  0.00  0.00    +0.028 C 
ATOM     10  C   UNL     1     -14.798  -3.034  -1.340  0.00  0.00    +0.077 C 
ATOM     11  C   UNL     1     -15.277  -3.529  -0.014  0.00  0.00    +0.256 C 
ATOM     12  N   UNL     1     -14.845  -4.809   0.188  0.00  0.00    -0.270 N 
ATOM     13  H   UNL     1     -15.088  -5.296   1.037  0.00  0.00    +0.156 HD
ATOM     14  C   UNL     1     -14.091  -5.389  -0.782  0.00  0.00    +0.118 C 
ATOM     15  S   UNL     1     -13.508  -6.935  -0.692  0.00  0.00    -0.027 S 
ATOM     16  O   UNL     1     -15.954  -2.897   0.781  0.00  0.00    -0.269 OA
ATOM     17  S   UNL     1     -13.854  -4.261  -2.095  0.00  0.00    -0.061 S 
ENDBRANCH   5   9
BRANCH   1  18
ATOM     18  O   UNL     1     -14.004   1.386  -6.308  0.00  0.00    -0.506 OA
ATOM     19  H   UNL     1     -13.084   1.690  -6.303  0.00  0.00    +0.292 HD
ENDBRANCH   1  18
TORSDOF 2
ENDMDL
MODEL 4
REMARK VINA RESULT:      -6.4     10.764     12.244
REMARK  Name = min_compound922.pdb
REMARK  4 active torsions:
REMARK  status: ('A' for Active; 'I' for Inactive)
REMARK    1  A    between atoms: _1  and  _15
REMARK    2  A    between atoms: _2  and  _16
REMARK    3  A    between atoms: _3  and  _17
REMARK    4  A    between atoms: _6  and  _18
REMARK                            x       y       z     vdW  Elec       q    Type
REMARK                         _______ _______ _______ _____ _____    ______ ____
ROOT
ATOM      1  C   UNL     1     -16.691   5.656  -9.137  0.00  0.00    +0.123 A 
ATOM      2  C   UNL     1     -17.333   5.157  -7.999  0.00  0.00    -0.008 A 
ATOM      3  C   UNL     1     -17.977   6.086  -7.006  0.00  0.00    +0.047 C 
ATOM      4  C   UNL     1     -17.333   3.771  -7.761  0.00  0.00    +0.015 A 
ATOM      5  C   UNL     1     -16.740   2.875  -8.654  0.00  0.00    -0.023 A 
ATOM      6  C   UNL     1     -16.118   3.412  -9.797  0.00  0.00    +0.015 A 
ATOM      7  C   UNL     1     -16.082   4.795 -10.054  0.00  0.00    -0.008 A 
ATOM      8  C   UNL     1     -15.381   5.292 -11.286  0.00  0.00    +0.047 C 
ENDROOT
BRANCH   5   9
ATOM      9  C   UNL     1     -16.677   1.406  -8.478  0.00  0.00    +0.028 C 
ATOM     10  C   UNL     1     -16.236   0.615  -7.489  0.00  0.00    +0.077 C 
ATOM     11  C   UNL     1     -16.310  -0.872  -7.629  0.00  0.00    +0.256 C 
ATOM     12  N   UNL     1     -15.782  -1.471  -6.521  0.00  0.00    -0.270 N 
ATOM     13  H   UNL     1     -15.749  -2.477  -6.458  0.00  0.00    +0.156 HD
ATOM     14  C   UNL     1     -15.311  -0.673  -5.527  0.00  0.00    +0.118 C 
ATOM     15  S   UNL     1     -14.629  -1.247  -4.133  0.00  0.00    -0.027 S 
ATOM     16  O   UNL     1     -16.770  -1.475  -8.585  0.00  0.00    -0.269 OA
ATOM     17  S   UNL     1     -15.539   1.003  -5.962  0.00  0.00    -0.061 S 
ENDBRANCH   5   9
BRANCH   1  18
ATOM     18  O   UNL     1     -16.683   7.015  -9.305  0.00  0.00    -0.506 OA
ATOM     19  H   UNL     1     -16.377   7.232 -10.198  0.00  0.00    +0.292 HD
ENDBRANCH   1  18
TORSDOF 2
ENDMDL
MODEL 5
REMARK VINA RESULT:      -6.3      1.945      2.161
REMARK  Name = min_compound922.pdb
REMARK  4 active torsions:
REMARK  status: ('A' for Active; 'I' for Inactive)
REMARK    1  A    between atoms: _1  and  _15
REMARK    2  A    between atoms: _2  and  _16
REMARK    3  A    between atoms: _3  and  _17
REMARK    4  A    between atoms: _6  and  _18
REMARK                            x       y       z     vdW  Elec       q    Type
REMARK                         _______ _______ _______ _____ _____    ______ ____
ROOT
ATOM      1  C   UNL     1     -10.861   1.665 -15.928  0.00  0.00    +0.123 A 
ATOM      2  C   UNL     1     -11.727   0.728 -16.502  0.00  0.00    -0.008 A 
ATOM      3  C   UNL     1     -11.475  -0.747 -16.356  0.00  0.00    +0.047 C 
ATOM      4  C   UNL     1     -12.821   1.178 -17.263  0.00  0.00    +0.015 A 
ATOM      5  C   UNL     1     -13.086   2.540 -17.429  0.00  0.00    -0.023 A 
ATOM      6  C   UNL     1     -12.203   3.453 -16.824  0.00  0.00    +0.015 A 
ATOM      7  C   UNL     1     -11.088   3.037 -16.073  0.00  0.00    -0.008 A 
ATOM      8  C   UNL     1     -10.180   4.073 -15.475  0.00  0.00    +0.047 C 
ENDROOT
BRANCH   5   9
ATOM      9  C   UNL     1     -14.201   3.105 -18.224  0.00  0.00    +0.028 C 
ATOM     10  C   UNL     1     -14.503   3.085 -19.531  0.00  0.00    +0.077 C 
ATOM     11  C   UNL     1     -15.732   3.776 -20.026  0.00  0.00    +0.256 C 
ATOM     12  N   UNL     1     -15.823   3.650 -21.383  0.00  0.00    -0.270 N 
ATOM     13  H   UNL     1     -16.596   4.067 -21.879  0.00  0.00    +0.156 HD
ATOM     14  C   UNL     1     -14.848   2.955 -22.026  0.00  0.00    +0.118 C 
ATOM     15  S   UNL     1     -14.809   2.729 -23.664  0.00  0.00    -0.027 S 
ATOM     16  O   UNL     1     -16.544   4.369 -19.334  0.00  0.00    -0.269 OA
ATOM     17  S   UNL     1     -13.685   2.364 -20.865  0.00  0.00    -0.061 S 
ENDBRANCH   5   9
BRANCH   1  18
ATOM     18  O   UNL     1      -9.788   1.179 -15.230  0.00  0.00    -0.506 OA
ATOM     19  H   UNL     1     -10.081   0.854 -14.366  0.00  0.00    +0.292 HD
ENDBRANCH   1  18
TORSDOF 2
ENDMDL
MODEL 6
REMARK VINA RESULT:      -6.3     10.744     12.198
REMARK  Name = min_compound922.pdb
REMARK  4 active torsions:
REMARK  status: ('A' for Active; 'I' for Inactive)
REMARK    1  A    between atoms: _1  and  _15
REMARK    2  A    between atoms: _2  and  _16
REMARK    3  A    between atoms: _3  and  _17
REMARK    4  A    between atoms: _6  and  _18
REMARK                            x       y       z     vdW  Elec       q    Type
REMARK                         _______ _______ _______ _____ _____    ______ ____
ROOT
ATOM      1  C   UNL     1     -16.717   5.712  -9.103  0.00  0.00    +0.123 A 
ATOM      2  C   UNL     1     -16.110   4.926 -10.088  0.00  0.00    -0.008 A 
ATOM      3  C   UNL     1     -15.543   5.551 -11.334  0.00  0.00    +0.047 C 
ATOM      4  C   UNL     1     -16.072   3.529  -9.928  0.00  0.00    +0.015 A 
ATOM      5  C   UNL     1     -16.595   2.909  -8.791  0.00  0.00    -0.023 A 
ATOM      6  C   UNL     1     -17.184   3.732  -7.813  0.00  0.00    +0.015 A 
ATOM      7  C   UNL     1     -17.256   5.131  -7.952  0.00  0.00    -0.008 A 
ATOM      8  C   UNL     1     -17.918   5.940  -6.873  0.00  0.00    +0.047 C 
ENDROOT
BRANCH   5   9
ATOM      9  C   UNL     1     -16.615   1.448  -8.544  0.00  0.00    +0.028 C 
ATOM     10  C   UNL     1     -16.189   0.680  -7.530  0.00  0.00    +0.077 C 
ATOM     11  C   UNL     1     -16.357  -0.804  -7.593  0.00  0.00    +0.256 C 
ATOM     12  N   UNL     1     -15.830  -1.381  -6.473  0.00  0.00    -0.270 N 
ATOM     13  H   UNL     1     -15.855  -2.383  -6.361  0.00  0.00    +0.156 HD
ATOM     14  C   UNL     1     -15.280  -0.566  -5.535  0.00  0.00    +0.118 C 
ATOM     15  S   UNL     1     -14.588  -1.113  -4.135  0.00  0.00    -0.027 S 
ATOM     16  O   UNL     1     -16.883  -1.423  -8.504  0.00  0.00    -0.269 OA
ATOM     17  S   UNL     1     -15.421   1.098  -6.046  0.00  0.00    -0.061 S 
ENDBRANCH   5   9
BRANCH   1  18
ATOM     18  O   UNL     1     -16.765   7.062  -9.322  0.00  0.00    -0.506 OA
ATOM     19  H   UNL     1     -16.263   7.523  -8.634  0.00  0.00    +0.292 HD
ENDBRANCH   1  18
TORSDOF 2
ENDMDL
MODEL 7
REMARK VINA RESULT:      -6.2      4.412      4.689
REMARK  Name = min_compound922.pdb
REMARK  4 active torsions:
REMARK  status: ('A' for Active; 'I' for Inactive)
REMARK    1  A    between atoms: _1  and  _15
REMARK    2  A    between atoms: _2  and  _16
REMARK    3  A    between atoms: _3  and  _17
REMARK    4  A    between atoms: _6  and  _18
REMARK                            x       y       z     vdW  Elec       q    Type
REMARK                         _______ _______ _______ _____ _____    ______ ____
ROOT
ATOM      1  C   UNL     1     -11.098   2.015 -16.273  0.00  0.00    +0.123 A 
ATOM      2  C   UNL     1     -12.234   1.206 -16.391  0.00  0.00    -0.008 A 
ATOM      3  C   UNL     1     -12.109  -0.256 -16.718  0.00  0.00    +0.047 C 
ATOM      4  C   UNL     1     -13.508   1.784 -16.247  0.00  0.00    +0.015 A 
ATOM      5  C   UNL     1     -13.667   3.140 -15.952  0.00  0.00    -0.023 A 
ATOM      6  C   UNL     1     -12.502   3.919 -15.823  0.00  0.00    +0.015 A 
ATOM      7  C   UNL     1     -11.213   3.377 -15.982  0.00  0.00    -0.008 A 
ATOM      8  C   UNL     1     -10.019   4.279 -15.850  0.00  0.00    +0.047 C 
ENDROOT
BRANCH   5   9
ATOM      9  C   UNL     1     -14.966   3.837 -15.798  0.00  0.00    +0.028 C 
ATOM     10  C   UNL     1     -15.585   4.410 -14.756  0.00  0.00    +0.077 C 
ATOM     11  C   UNL     1     -16.929   5.039 -14.936  0.00  0.00    +0.256 C 
ATOM     12  N   UNL     1     -17.377   5.531 -13.744  0.00  0.00    -0.270 N 
ATOM     13  H   UNL     1     -18.277   5.984 -13.690  0.00  0.00    +0.156 HD
ATOM     14  C   UNL     1     -16.579   5.388 -12.654  0.00  0.00    +0.118 C 
ATOM     15  S   UNL     1     -16.988   5.915 -11.140  0.00  0.00    -0.027 S 
ATOM     16  O   UNL     1     -17.547   5.109 -15.987  0.00  0.00    -0.269 OA
ATOM     17  S   UNL     1     -15.101   4.577 -13.111  0.00  0.00    -0.061 S 
ENDBRANCH   5   9
BRANCH   1  18
ATOM     18  O   UNL     1      -9.882   1.416 -16.462  0.00  0.00    -0.506 OA
ATOM     19  H   UNL     1      -9.572   1.036 -15.626  0.00  0.00    +0.292 HD
ENDBRANCH   1  18
TORSDOF 2
ENDMDL
MODEL 8
REMARK VINA RESULT:      -6.1     15.195     17.108
REMARK  Name = min_compound922.pdb
REMARK  4 active torsions:
REMARK  status: ('A' for Active; 'I' for Inactive)
REMARK    1  A    between atoms: _1  and  _15
REMARK    2  A    between atoms: _2  and  _16
REMARK    3  A    between atoms: _3  and  _17
REMARK    4  A    between atoms: _6  and  _18
REMARK                            x       y       z     vdW  Elec       q    Type
REMARK                         _______ _______ _______ _____ _____    ______ ____
ROOT
ATOM      1  C   UNL     1     -14.223   0.676  -5.198  0.00  0.00    +0.123 A 
ATOM      2  C   UNL     1     -13.853   1.066  -3.906  0.00  0.00    -0.008 A 
ATOM      3  C   UNL     1     -13.298   2.439  -3.643  0.00  0.00    +0.047 C 
ATOM      4  C   UNL     1     -13.960   0.142  -2.852  0.00  0.00    +0.015 A 
ATOM      5  C   UNL     1     -14.462  -1.146  -3.055  0.00  0.00    -0.023 A 
ATOM      6  C   UNL     1     -14.840  -1.497  -4.365  0.00  0.00    +0.015 A 
ATOM      7  C   UNL     1     -14.726  -0.603  -5.446  0.00  0.00    -0.008 A 
ATOM      8  C   UNL     1     -15.131  -1.060  -6.818  0.00  0.00    +0.047 C 
ENDROOT
BRANCH   5   9
ATOM      9  C   UNL     1     -14.596  -2.188  -2.011  0.00  0.00    +0.028 C 
ATOM     10  C   UNL     1     -15.565  -2.495  -1.136  0.00  0.00    +0.077 C 
ATOM     11  C   UNL     1     -15.383  -3.634  -0.186  0.00  0.00    +0.256 C 
ATOM     12  N   UNL     1     -16.476  -3.745   0.625  0.00  0.00    -0.270 N 
ATOM     13  H   UNL     1     -16.511  -4.464   1.331  0.00  0.00    +0.156 HD
ATOM     14  C   UNL     1     -17.495  -2.863   0.446  0.00  0.00    +0.118 C 
ATOM     15  S   UNL     1     -18.876  -2.857   1.357  0.00  0.00    -0.027 S 
ATOM     16  O   UNL     1     -14.408  -4.366  -0.130  0.00  0.00    -0.269 OA
ATOM     17  S   UNL     1     -17.106  -1.774  -0.863  0.00  0.00    -0.061 S 
ENDBRANCH   5   9
BRANCH   1  18
ATOM     18  O   UNL     1     -14.062   1.597  -6.198  0.00  0.00    -0.506 OA
ATOM     19  H   UNL     1     -13.342   2.204  -5.972  0.00  0.00    +0.292 HD
ENDBRANCH   1  18
TORSDOF 2
ENDMDL
MODEL 9
REMARK VINA RESULT:      -6.1      1.968      3.009
REMARK  Name = min_compound922.pdb
REMARK  4 active torsions:
REMARK  status: ('A' for Active; 'I' for Inactive)
REMARK    1  A    between atoms: _1  and  _15
REMARK    2  A    between atoms: _2  and  _16
REMARK    3  A    between atoms: _3  and  _17
REMARK    4  A    between atoms: _6  and  _18
REMARK                            x       y       z     vdW  Elec       q    Type
REMARK                         _______ _______ _______ _____ _____    ______ ____
ROOT
ATOM      1  C   UNL     1     -10.952   1.803 -15.975  0.00  0.00    +0.123 A 
ATOM      2  C   UNL     1     -11.074   3.187 -16.135  0.00  0.00    -0.008 A 
ATOM      3  C   UNL     1     -10.089   4.128 -15.498  0.00  0.00    +0.047 C 
ATOM      4  C   UNL     1     -12.161   3.702 -16.865  0.00  0.00    +0.015 A 
ATOM      5  C   UNL     1     -13.102   2.862 -17.466  0.00  0.00    -0.023 A 
ATOM      6  C   UNL     1     -12.937   1.475 -17.297  0.00  0.00    +0.015 A 
ATOM      7  C   UNL     1     -11.873   0.928 -16.556  0.00  0.00    -0.008 A 
ATOM      8  C   UNL     1     -11.778  -0.563 -16.405  0.00  0.00    +0.047 C 
ENDROOT
BRANCH   5   9
ATOM      9  C   UNL     1     -14.284   3.313 -18.237  0.00  0.00    +0.028 C 
ATOM     10  C   UNL     1     -14.622   3.235 -19.533  0.00  0.00    +0.077 C 
ATOM     11  C   UNL     1     -15.919   3.810 -20.004  0.00  0.00    +0.256 C 
ATOM     12  N   UNL     1     -16.040   3.642 -21.353  0.00  0.00    -0.270 N 
ATOM     13  H   UNL     1     -16.859   3.982 -21.834  0.00  0.00    +0.156 HD
ATOM     14  C   UNL     1     -15.031   3.013 -22.011  0.00  0.00    +0.118 C 
ATOM     15  S   UNL     1     -15.022   2.749 -23.645  0.00  0.00    -0.027 S 
ATOM     16  O   UNL     1     -16.755   4.352 -19.300  0.00  0.00    -0.269 OA
ATOM     17  S   UNL     1     -13.788   2.550 -20.875  0.00  0.00    -0.061 S 
ENDBRANCH   5   9
BRANCH   1  18
ATOM     18  O   UNL     1      -9.901   1.351 -15.223  0.00  0.00    -0.506 OA
ATOM     19  H   UNL     1      -9.143   1.945 -15.331  0.00  0.00    +0.292 HD
ENDBRANCH   1  18
TORSDOF 2
ENDMDL
