MODEL 1
REMARK VINA RESULT:      -6.6      0.000      0.000
REMARK  Name = min_compound948.pdb
REMARK  4 active torsions:
REMARK  status: ('A' for Active; 'I' for Inactive)
REMARK    1  A    between atoms: _4  and  _15
REMARK    2  A    between atoms: _8  and  _9
REMARK    3  A    between atoms: _10  and  _18
REMARK    4  A    between atoms: _14  and  _19
REMARK                            x       y       z     vdW  Elec       q    Type
REMARK                         _______ _______ _______ _____ _____    ______ ____
ROOT
ATOM      1  C   UNL     1      -9.951   1.645 -17.258  0.00  0.00    +0.099 A 
ATOM      2  N   UNL     1     -11.232   2.015 -16.829  0.00  0.00    -0.240 N 
ATOM      3  C   UNL     1     -11.815   3.241 -16.623  0.00  0.00    +0.397 A 
ATOM      4  C   UNL     1     -13.102   3.022 -16.200  0.00  0.00    +0.240 A 
ATOM      5  N   UNL     1     -13.349   1.661 -16.174  0.00  0.00    -0.204 NA
ATOM      6  C   UNL     1     -12.228   1.079 -16.544  0.00  0.00    +0.145 A 
ATOM      7  C   UNL     1     -11.904  -0.298 -16.703  0.00  0.00    +0.047 A 
ATOM      8  C   UNL     1     -10.672  -0.653 -17.114  0.00  0.00    +0.005 A 
ATOM      9  C   UNL     1      -9.652   0.342 -17.402  0.00  0.00    +0.018 A 
ENDROOT
BRANCH   4  10
ATOM     10  N   UNL     1     -14.182   3.879 -15.823  0.00  0.00    -0.274 N 
ATOM     11  C   UNL     1     -15.068   4.654 -16.570  0.00  0.00    +0.119 A 
ATOM     12  C   UNL     1     -15.003   4.907 -18.032  0.00  0.00    +0.087 C 
ATOM     13  N   UNL     1     -15.957   5.255 -15.795  0.00  0.00    -0.167 NA
ATOM     14  C   UNL     1     -15.608   4.933 -14.509  0.00  0.00    +0.385 A 
ATOM     15  C   UNL     1     -14.505   4.118 -14.497  0.00  0.00    +0.201 A 
BRANCH  14  16
ATOM     16  N   UNL     1     -16.341   5.443 -13.372  0.00  0.00    +0.102 N 
ATOM     17  O   UNL     1     -16.005   6.542 -12.912  0.00  0.00    +0.043 OA
ATOM     18  O   UNL     1     -17.260   4.730 -12.939  0.00  0.00    -0.575 OA
ENDBRANCH  14  16
ENDBRANCH   4  10
BRANCH   3  19
ATOM     19  N   UNL     1     -11.136   4.409 -16.993  0.00  0.00    +0.103 N 
ATOM     20  O   UNL     1     -11.456   4.906 -18.076  0.00  0.00    +0.043 OA
ATOM     21  O   UNL     1     -10.284   4.829 -16.206  0.00  0.00    -0.575 OA
ENDBRANCH   3  19
TORSDOF 3
ENDMDL
MODEL 2
REMARK VINA RESULT:      -6.6      2.742      6.470
REMARK  Name = min_compound948.pdb
REMARK  4 active torsions:
REMARK  status: ('A' for Active; 'I' for Inactive)
REMARK    1  A    between atoms: _4  and  _15
REMARK    2  A    between atoms: _8  and  _9
REMARK    3  A    between atoms: _10  and  _18
REMARK    4  A    between atoms: _14  and  _19
REMARK                            x       y       z     vdW  Elec       q    Type
REMARK                         _______ _______ _______ _____ _____    ______ ____
ROOT
ATOM      1  C   UNL     1     -15.882   6.648 -15.940  0.00  0.00    +0.099 A 
ATOM      2  N   UNL     1     -14.774   5.835 -16.207  0.00  0.00    -0.240 N 
ATOM      3  C   UNL     1     -14.426   4.580 -15.769  0.00  0.00    +0.397 A 
ATOM      4  C   UNL     1     -13.225   4.256 -16.349  0.00  0.00    +0.240 A 
ATOM      5  N   UNL     1     -12.829   5.286 -17.184  0.00  0.00    -0.204 NA
ATOM      6  C   UNL     1     -13.755   6.216 -17.083  0.00  0.00    +0.145 A 
ATOM      7  C   UNL     1     -13.873   7.484 -17.719  0.00  0.00    +0.047 A 
ATOM      8  C   UNL     1     -14.938   8.266 -17.461  0.00  0.00    +0.005 A 
ATOM      9  C   UNL     1     -15.983   7.846 -16.543  0.00  0.00    +0.018 A 
ENDROOT
BRANCH   4  10
ATOM     10  N   UNL     1     -12.365   3.118 -16.278  0.00  0.00    -0.274 N 
ATOM     11  C   UNL     1     -11.026   2.976 -15.914  0.00  0.00    +0.119 A 
ATOM     12  C   UNL     1     -10.066   4.074 -15.636  0.00  0.00    +0.087 C 
ATOM     13  N   UNL     1     -10.649   1.707 -15.944  0.00  0.00    -0.167 NA
ATOM     14  C   UNL     1     -11.733   1.006 -16.406  0.00  0.00    +0.385 A 
ATOM     15  C   UNL     1     -12.786   1.851 -16.648  0.00  0.00    +0.201 A 
BRANCH  14  16
ATOM     16  N   UNL     1     -11.685  -0.424 -16.604  0.00  0.00    +0.102 N 
ATOM     17  O   UNL     1     -12.691  -1.084 -16.312  0.00  0.00    +0.043 OA
ATOM     18  O   UNL     1     -10.624  -0.887 -17.054  0.00  0.00    -0.575 OA
ENDBRANCH  14  16
ENDBRANCH   4  10
BRANCH   3  19
ATOM     19  N   UNL     1     -15.330   3.831 -15.005  0.00  0.00    +0.103 N 
ATOM     20  O   UNL     1     -15.231   3.940 -13.780  0.00  0.00    +0.043 OA
ATOM     21  O   UNL     1     -16.136   3.132 -15.626  0.00  0.00    -0.575 OA
ENDBRANCH   3  19
TORSDOF 3
ENDMDL
MODEL 3
REMARK VINA RESULT:      -6.6      2.705      6.075
REMARK  Name = min_compound948.pdb
REMARK  4 active torsions:
REMARK  status: ('A' for Active; 'I' for Inactive)
REMARK    1  A    between atoms: _4  and  _15
REMARK    2  A    between atoms: _8  and  _9
REMARK    3  A    between atoms: _10  and  _18
REMARK    4  A    between atoms: _14  and  _19
REMARK                            x       y       z     vdW  Elec       q    Type
REMARK                         _______ _______ _______ _____ _____    ______ ____
ROOT
ATOM      1  C   UNL     1     -15.203   7.083 -17.000  0.00  0.00    +0.099 A 
ATOM      2  N   UNL     1     -14.590   5.902 -16.563  0.00  0.00    -0.240 N 
ATOM      3  C   UNL     1     -13.494   5.211 -17.019  0.00  0.00    +0.397 A 
ATOM      4  C   UNL     1     -13.333   4.111 -16.215  0.00  0.00    +0.240 A 
ATOM      5  N   UNL     1     -14.300   4.123 -15.225  0.00  0.00    -0.204 NA
ATOM      6  C   UNL     1     -15.040   5.188 -15.450  0.00  0.00    +0.145 A 
ATOM      7  C   UNL     1     -16.167   5.703 -14.749  0.00  0.00    +0.047 A 
ATOM      8  C   UNL     1     -16.757   6.837 -15.170  0.00  0.00    +0.005 A 
ATOM      9  C   UNL     1     -16.270   7.559 -16.334  0.00  0.00    +0.018 A 
ENDROOT
BRANCH   4  10
ATOM     10  N   UNL     1     -12.400   3.029 -16.189  0.00  0.00    -0.274 N 
ATOM     11  C   UNL     1     -11.033   2.976 -15.916  0.00  0.00    +0.119 A 
ATOM     12  C   UNL     1     -10.127   4.136 -15.718  0.00  0.00    +0.087 C 
ATOM     13  N   UNL     1     -10.580   1.733 -15.955  0.00  0.00    -0.167 NA
ATOM     14  C   UNL     1     -11.648   0.959 -16.333  0.00  0.00    +0.385 A 
ATOM     15  C   UNL     1     -12.765   1.733 -16.513  0.00  0.00    +0.201 A 
BRANCH  14  16
ATOM     16  N   UNL     1     -11.523  -0.470 -16.516  0.00  0.00    +0.102 N 
ATOM     17  O   UNL     1     -10.423  -0.915 -16.868  0.00  0.00    +0.043 OA
ATOM     18  O   UNL     1     -12.542  -1.147 -16.306  0.00  0.00    -0.575 OA
ENDBRANCH  14  16
ENDBRANCH   4  10
BRANCH   3  19
ATOM     19  N   UNL     1     -12.692   5.759 -18.029  0.00  0.00    +0.103 N 
ATOM     20  O   UNL     1     -12.928   5.379 -19.179  0.00  0.00    +0.043 OA
ATOM     21  O   UNL     1     -11.827   6.565 -17.676  0.00  0.00    -0.575 OA
ENDBRANCH   3  19
TORSDOF 3
ENDMDL
MODEL 4
REMARK VINA RESULT:      -6.5      2.137      2.686
REMARK  Name = min_compound948.pdb
REMARK  4 active torsions:
REMARK  status: ('A' for Active; 'I' for Inactive)
REMARK    1  A    between atoms: _4  and  _15
REMARK    2  A    between atoms: _8  and  _9
REMARK    3  A    between atoms: _10  and  _18
REMARK    4  A    between atoms: _14  and  _19
REMARK                            x       y       z     vdW  Elec       q    Type
REMARK                         _______ _______ _______ _____ _____    ______ ____
ROOT
ATOM      1  C   UNL     1      -9.969   0.892 -16.111  0.00  0.00    +0.099 A 
ATOM      2  N   UNL     1     -11.174   1.600 -16.196  0.00  0.00    -0.240 N 
ATOM      3  C   UNL     1     -11.455   2.945 -16.190  0.00  0.00    +0.397 A 
ATOM      4  C   UNL     1     -12.815   3.085 -16.300  0.00  0.00    +0.240 A 
ATOM      5  N   UNL     1     -13.396   1.834 -16.417  0.00  0.00    -0.204 NA
ATOM      6  C   UNL     1     -12.409   0.965 -16.347  0.00  0.00    +0.145 A 
ATOM      7  C   UNL     1     -12.415  -0.457 -16.415  0.00  0.00    +0.047 A 
ATOM      8  C   UNL     1     -11.256  -1.136 -16.333  0.00  0.00    +0.005 A 
ATOM      9  C   UNL     1      -9.984  -0.451 -16.173  0.00  0.00    +0.018 A 
ENDROOT
BRANCH   4  10
ATOM     10  N   UNL     1     -13.697   4.209 -16.339  0.00  0.00    -0.274 N 
ATOM     11  C   UNL     1     -14.695   4.648 -15.469  0.00  0.00    +0.119 A 
ATOM     12  C   UNL     1     -15.218   3.918 -14.287  0.00  0.00    +0.087 C 
ATOM     13  N   UNL     1     -15.228   5.787 -15.882  0.00  0.00    -0.167 NA
ATOM     14  C   UNL     1     -14.626   6.068 -17.081  0.00  0.00    +0.385 A 
ATOM     15  C   UNL     1     -13.708   5.101 -17.399  0.00  0.00    +0.201 A 
BRANCH  14  16
ATOM     16  N   UNL     1     -14.983   7.236 -17.855  0.00  0.00    +0.102 N 
ATOM     17  O   UNL     1     -15.822   7.099 -18.755  0.00  0.00    +0.043 OA
ATOM     18  O   UNL     1     -14.413   8.297 -17.556  0.00  0.00    -0.575 OA
ENDBRANCH  14  16
ENDBRANCH   4  10
BRANCH   3  19
ATOM     19  N   UNL     1     -10.410   3.877 -16.231  0.00  0.00    +0.103 N 
ATOM     20  O   UNL     1      -9.982   4.166 -17.351  0.00  0.00    +0.043 OA
ATOM     21  O   UNL     1     -10.016   4.318 -15.147  0.00  0.00    -0.575 OA
ENDBRANCH   3  19
TORSDOF 3
ENDMDL
MODEL 5
REMARK VINA RESULT:      -6.4      2.942      4.043
REMARK  Name = min_compound948.pdb
REMARK  4 active torsions:
REMARK  status: ('A' for Active; 'I' for Inactive)
REMARK    1  A    between atoms: _4  and  _15
REMARK    2  A    between atoms: _8  and  _9
REMARK    3  A    between atoms: _10  and  _18
REMARK    4  A    between atoms: _14  and  _19
REMARK                            x       y       z     vdW  Elec       q    Type
REMARK                         _______ _______ _______ _____ _____    ______ ____
ROOT
ATOM      1  C   UNL     1     -10.462   0.888 -15.449  0.00  0.00    +0.099 A 
ATOM      2  N   UNL     1     -11.186   1.395 -16.536  0.00  0.00    -0.240 N 
ATOM      3  C   UNL     1     -11.917   2.546 -16.698  0.00  0.00    +0.397 A 
ATOM      4  C   UNL     1     -12.420   2.541 -17.975  0.00  0.00    +0.240 A 
ATOM      5  N   UNL     1     -11.978   1.409 -18.636  0.00  0.00    -0.204 NA
ATOM      6  C   UNL     1     -11.253   0.738 -17.766  0.00  0.00    +0.145 A 
ATOM      7  C   UNL     1     -10.547  -0.492 -17.896  0.00  0.00    +0.047 A 
ATOM      8  C   UNL     1      -9.852  -0.978 -16.851  0.00  0.00    +0.005 A 
ATOM      9  C   UNL     1      -9.802  -0.276 -15.580  0.00  0.00    +0.018 A 
ENDROOT
BRANCH   4  10
ATOM     10  N   UNL     1     -13.247   3.439 -18.718  0.00  0.00    -0.274 N 
ATOM     11  C   UNL     1     -13.092   4.779 -19.075  0.00  0.00    +0.119 A 
ATOM     12  C   UNL     1     -12.025   5.699 -18.606  0.00  0.00    +0.087 C 
ATOM     13  N   UNL     1     -14.098   5.198 -19.826  0.00  0.00    -0.167 NA
ATOM     14  C   UNL     1     -14.969   4.142 -19.907  0.00  0.00    +0.385 A 
ATOM     15  C   UNL     1     -14.486   3.064 -19.211  0.00  0.00    +0.201 A 
BRANCH  14  16
ATOM     16  N   UNL     1     -16.217   4.240 -20.629  0.00  0.00    +0.102 N 
ATOM     17  O   UNL     1     -17.263   3.983 -20.017  0.00  0.00    +0.043 OA
ATOM     18  O   UNL     1     -16.144   4.574 -21.822  0.00  0.00    -0.575 OA
ENDBRANCH  14  16
ENDBRANCH   4  10
BRANCH   3  19
ATOM     19  N   UNL     1     -11.908   3.527 -15.698  0.00  0.00    +0.103 N 
ATOM     20  O   UNL     1     -10.839   4.118 -15.525  0.00  0.00    +0.043 OA
ATOM     21  O   UNL     1     -12.964   3.706 -15.085  0.00  0.00    -0.575 OA
ENDBRANCH   3  19
TORSDOF 3
ENDMDL
MODEL 6
REMARK VINA RESULT:      -6.3     10.194     12.790
REMARK  Name = min_compound948.pdb
REMARK  4 active torsions:
REMARK  status: ('A' for Active; 'I' for Inactive)
REMARK    1  A    between atoms: _4  and  _15
REMARK    2  A    between atoms: _8  and  _9
REMARK    3  A    between atoms: _10  and  _18
REMARK    4  A    between atoms: _14  and  _19
REMARK                            x       y       z     vdW  Elec       q    Type
REMARK                         _______ _______ _______ _____ _____    ______ ____
ROOT
ATOM      1  C   UNL     1     -17.410   3.897  -7.137  0.00  0.00    +0.099 A 
ATOM      2  N   UNL     1     -16.836   2.733  -6.611  0.00  0.00    -0.240 N 
ATOM      3  C   UNL     1     -16.461   2.387  -5.335  0.00  0.00    +0.397 A 
ATOM      4  C   UNL     1     -15.948   1.116  -5.384  0.00  0.00    +0.240 A 
ATOM      5  N   UNL     1     -16.032   0.639  -6.680  0.00  0.00    -0.204 NA
ATOM      6  C   UNL     1     -16.555   1.612  -7.395  0.00  0.00    +0.145 A 
ATOM      7  C   UNL     1     -16.875   1.681  -8.781  0.00  0.00    +0.047 A 
ATOM      8  C   UNL     1     -17.427   2.800  -9.286  0.00  0.00    +0.005 A 
ATOM      9  C   UNL     1     -17.706   3.953  -8.448  0.00  0.00    +0.018 A 
ENDROOT
BRANCH   4  10
ATOM     10  N   UNL     1     -15.395   0.231  -4.408  0.00  0.00    -0.274 N 
ATOM     11  C   UNL     1     -14.372   0.387  -3.473  0.00  0.00    +0.119 A 
ATOM     12  C   UNL     1     -13.446   1.543  -3.364  0.00  0.00    +0.087 C 
ATOM     13  N   UNL     1     -14.232  -0.695  -2.724  0.00  0.00    -0.167 NA
ATOM     14  C   UNL     1     -15.127  -1.609  -3.218  0.00  0.00    +0.385 A 
ATOM     15  C   UNL     1     -15.829  -1.077  -4.269  0.00  0.00    +0.201 A 
BRANCH  14  16
ATOM     16  N   UNL     1     -15.238  -2.939  -2.663  0.00  0.00    +0.102 N 
ATOM     17  O   UNL     1     -16.373  -3.393  -2.469  0.00  0.00    +0.043 OA
ATOM     18  O   UNL     1     -14.174  -3.529  -2.418  0.00  0.00    -0.575 OA
ENDBRANCH  14  16
ENDBRANCH   4  10
BRANCH   3  19
ATOM     19  N   UNL     1     -16.775   3.231  -4.262  0.00  0.00    +0.103 N 
ATOM     20  O   UNL     1     -17.889   3.078  -3.756  0.00  0.00    +0.043 OA
ATOM     21  O   UNL     1     -15.912   4.047  -3.926  0.00  0.00    -0.575 OA
ENDBRANCH   3  19
TORSDOF 3
ENDMDL
MODEL 7
REMARK VINA RESULT:      -6.3      2.559      6.079
REMARK  Name = min_compound948.pdb
REMARK  4 active torsions:
REMARK  status: ('A' for Active; 'I' for Inactive)
REMARK    1  A    between atoms: _4  and  _15
REMARK    2  A    between atoms: _8  and  _9
REMARK    3  A    between atoms: _10  and  _18
REMARK    4  A    between atoms: _14  and  _19
REMARK                            x       y       z     vdW  Elec       q    Type
REMARK                         _______ _______ _______ _____ _____    ______ ____
ROOT
ATOM      1  C   UNL     1     -15.202   6.729 -15.908  0.00  0.00    +0.099 A 
ATOM      2  N   UNL     1     -14.616   5.459 -15.977  0.00  0.00    -0.240 N 
ATOM      3  C   UNL     1     -13.720   4.905 -16.860  0.00  0.00    +0.397 A 
ATOM      4  C   UNL     1     -13.482   3.617 -16.454  0.00  0.00    +0.240 A 
ATOM      5  N   UNL     1     -14.193   3.363 -15.295  0.00  0.00    -0.204 NA
ATOM      6  C   UNL     1     -14.865   4.464 -15.030  0.00  0.00    +0.145 A 
ATOM      7  C   UNL     1     -15.751   4.778 -13.961  0.00  0.00    +0.047 A 
ATOM      8  C   UNL     1     -16.315   5.999 -13.896  0.00  0.00    +0.005 A 
ATOM      9  C   UNL     1     -16.041   7.016 -14.897  0.00  0.00    +0.018 A 
ENDROOT
BRANCH   4  10
ATOM     10  N   UNL     1     -12.670   2.553 -16.956  0.00  0.00    -0.274 N 
ATOM     11  C   UNL     1     -12.544   1.989 -18.226  0.00  0.00    +0.119 A 
ATOM     12  C   UNL     1     -13.391   2.282 -19.410  0.00  0.00    +0.087 C 
ATOM     13  N   UNL     1     -11.616   1.045 -18.245  0.00  0.00    -0.167 NA
ATOM     14  C   UNL     1     -11.174   0.931 -16.953  0.00  0.00    +0.385 A 
ATOM     15  C   UNL     1     -11.826   1.820 -16.138  0.00  0.00    +0.201 A 
BRANCH  14  16
ATOM     16  N   UNL     1     -10.168  -0.038 -16.577  0.00  0.00    +0.102 N 
ATOM     17  O   UNL     1      -9.903  -0.940 -17.383  0.00  0.00    +0.043 OA
ATOM     18  O   UNL     1      -9.645   0.109 -15.461  0.00  0.00    -0.575 OA
ENDBRANCH  14  16
ENDBRANCH   4  10
BRANCH   3  19
ATOM     19  N   UNL     1     -13.123   5.705 -17.843  0.00  0.00    +0.103 N 
ATOM     20  O   UNL     1     -12.060   6.249 -17.531  0.00  0.00    +0.043 OA
ATOM     21  O   UNL     1     -13.713   5.791 -18.923  0.00  0.00    -0.575 OA
ENDBRANCH   3  19
TORSDOF 3
ENDMDL
MODEL 8
REMARK VINA RESULT:      -6.2      2.702      3.289
REMARK  Name = min_compound948.pdb
REMARK  4 active torsions:
REMARK  status: ('A' for Active; 'I' for Inactive)
REMARK    1  A    between atoms: _4  and  _15
REMARK    2  A    between atoms: _8  and  _9
REMARK    3  A    between atoms: _10  and  _18
REMARK    4  A    between atoms: _14  and  _19
REMARK                            x       y       z     vdW  Elec       q    Type
REMARK                         _______ _______ _______ _____ _____    ______ ____
ROOT
ATOM      1  C   UNL     1     -11.879   1.078 -18.044  0.00  0.00    +0.099 A 
ATOM      2  N   UNL     1     -12.127   2.385 -17.605  0.00  0.00    -0.240 N 
ATOM      3  C   UNL     1     -12.927   3.386 -18.100  0.00  0.00    +0.397 A 
ATOM      4  C   UNL     1     -12.793   4.471 -17.272  0.00  0.00    +0.240 A 
ATOM      5  N   UNL     1     -11.941   4.150 -16.231  0.00  0.00    -0.204 NA
ATOM      6  C   UNL     1     -11.550   2.911 -16.447  0.00  0.00    +0.145 A 
ATOM      7  C   UNL     1     -10.681   2.066 -15.701  0.00  0.00    +0.047 A 
ATOM      8  C   UNL     1     -10.443   0.810 -16.124  0.00  0.00    +0.005 A 
ATOM      9  C   UNL     1     -11.054   0.288 -17.334  0.00  0.00    +0.018 A 
ENDROOT
BRANCH   4  10
ATOM     10  N   UNL     1     -13.349   5.788 -17.265  0.00  0.00    -0.274 N 
ATOM     11  C   UNL     1     -12.982   6.964 -17.918  0.00  0.00    +0.119 A 
ATOM     12  C   UNL     1     -11.750   7.182 -18.718  0.00  0.00    +0.087 C 
ATOM     13  N   UNL     1     -13.829   7.947 -17.656  0.00  0.00    -0.167 NA
ATOM     14  C   UNL     1     -14.729   7.434 -16.757  0.00  0.00    +0.385 A 
ATOM     15  C   UNL     1     -14.438   6.124 -16.477  0.00  0.00    +0.201 A 
BRANCH  14  16
ATOM     16  N   UNL     1     -15.798   8.239 -16.210  0.00  0.00    +0.102 N 
ATOM     17  O   UNL     1     -16.963   7.903 -16.462  0.00  0.00    +0.043 OA
ATOM     18  O   UNL     1     -15.461   9.217 -15.524  0.00  0.00    -0.575 OA
ENDBRANCH  14  16
ENDBRANCH   4  10
BRANCH   3  19
ATOM     19  N   UNL     1     -13.793   3.124 -19.170  0.00  0.00    +0.103 N 
ATOM     20  O   UNL     1     -13.264   2.967 -20.273  0.00  0.00    +0.043 OA
ATOM     21  O   UNL     1     -14.999   3.077 -18.910  0.00  0.00    -0.575 OA
ENDBRANCH   3  19
TORSDOF 3
ENDMDL
MODEL 9
REMARK VINA RESULT:      -6.2      2.919      6.446
REMARK  Name = min_compound948.pdb
REMARK  4 active torsions:
REMARK  status: ('A' for Active; 'I' for Inactive)
REMARK    1  A    between atoms: _4  and  _15
REMARK    2  A    between atoms: _8  and  _9
REMARK    3  A    between atoms: _10  and  _18
REMARK    4  A    between atoms: _14  and  _19
REMARK                            x       y       z     vdW  Elec       q    Type
REMARK                         _______ _______ _______ _____ _____    ______ ____
ROOT
ATOM      1  C   UNL     1     -16.553   4.092 -18.174  0.00  0.00    +0.099 A 
ATOM      2  N   UNL     1     -15.286   3.496 -18.172  0.00  0.00    -0.240 N 
ATOM      3  C   UNL     1     -14.475   3.060 -17.152  0.00  0.00    +0.397 A 
ATOM      4  C   UNL     1     -13.334   2.552 -17.719  0.00  0.00    +0.240 A 
ATOM      5  N   UNL     1     -13.434   2.627 -19.096  0.00  0.00    -0.204 NA
ATOM      6  C   UNL     1     -14.595   3.195 -19.348  0.00  0.00    +0.145 A 
ATOM      7  C   UNL     1     -15.225   3.516 -20.583  0.00  0.00    +0.047 A 
ATOM      8  C   UNL     1     -16.443   4.090 -20.584  0.00  0.00    +0.005 A 
ATOM      9  C   UNL     1     -17.139   4.396 -19.346  0.00  0.00    +0.018 A 
ENDROOT
BRANCH   4  10
ATOM     10  N   UNL     1     -12.138   1.972 -17.192  0.00  0.00    -0.274 N 
ATOM     11  C   UNL     1     -11.178   2.451 -16.300  0.00  0.00    +0.119 A 
ATOM     12  C   UNL     1     -11.084   3.832 -15.763  0.00  0.00    +0.087 C 
ATOM     13  N   UNL     1     -10.254   1.537 -16.049  0.00  0.00    -0.167 NA
ATOM     14  C   UNL     1     -10.565   0.463 -16.843  0.00  0.00    +0.385 A 
ATOM     15  C   UNL     1     -11.696   0.717 -17.576  0.00  0.00    +0.201 A 
BRANCH  14  16
ATOM     16  N   UNL     1      -9.748  -0.728 -16.864  0.00  0.00    +0.102 N 
ATOM     17  O   UNL     1      -9.694  -1.376 -17.917  0.00  0.00    +0.043 OA
ATOM     18  O   UNL     1      -9.158  -1.016 -15.810  0.00  0.00    -0.575 OA
ENDBRANCH  14  16
ENDBRANCH   4  10
BRANCH   3  19
ATOM     19  N   UNL     1     -14.952   3.052 -15.835  0.00  0.00    +0.103 N 
ATOM     20  O   UNL     1     -14.697   4.050 -15.156  0.00  0.00    +0.043 OA
ATOM     21  O   UNL     1     -15.578   2.050 -15.477  0.00  0.00    -0.575 OA
ENDBRANCH   3  19
TORSDOF 3
ENDMDL
