MODEL 1
REMARK VINA RESULT:      -7.4      0.000      0.000
REMARK  Name = min_compound980.pdb
REMARK  8 active torsions:
REMARK  status: ('A' for Active; 'I' for Inactive)
REMARK    1  A    between atoms: _3  and  _7
REMARK    2  A    between atoms: _6  and  _19
REMARK    3  A    between atoms: _8  and  _9
REMARK    4  A    between atoms: _8  and  _10
REMARK    5  A    between atoms: _9  and  _13
REMARK    6  A    between atoms: _10  and  _11
REMARK    7  A    between atoms: _19  and  _20
REMARK    8  A    between atoms: _19  and  _21
REMARK                            x       y       z     vdW  Elec       q    Type
REMARK                         _______ _______ _______ _____ _____    ______ ____
ROOT
ATOM      1  C   UNL     1     -14.283   2.096 -16.115  0.00  0.00    +0.016 C 
ATOM      2  C   UNL     1     -13.502   2.648 -17.256  0.00  0.00    +0.014 C 
ENDROOT
BRANCH   1   4
ATOM      3  C   UNL     1     -16.406   2.380 -14.835  0.00  0.00    +0.010 A 
ATOM      4  C   UNL     1     -15.100   2.802 -15.085  0.00  0.00    -0.025 A 
ATOM      5  C   UNL     1     -14.625   3.858 -14.296  0.00  0.00    +0.010 A 
ATOM      6  C   UNL     1     -15.446   4.514 -13.345  0.00  0.00    +0.023 A 
ATOM      7  C   UNL     1     -16.765   4.110 -13.098  0.00  0.00    +0.029 A 
ATOM      8  C   UNL     1     -17.212   3.015 -13.861  0.00  0.00    +0.023 A 
BRANCH   7   9
ATOM      9  N   UNL     1     -17.537   4.719 -12.092  0.00  0.00    -0.336 N 
ATOM     10  C   UNL     1     -18.389   3.823 -11.242  0.00  0.00    +0.129 C 
ATOM     11  C   UNL     1     -17.019   5.926 -11.449  0.00  0.00    +0.129 C 
ENDBRANCH   7   9
ENDBRANCH   1   4
BRANCH   2  12
ATOM     12  C   UNL     1     -12.800   1.868 -18.127  0.00  0.00    +0.190 C 
ATOM     13  O   UNL     1     -12.930   1.813 -19.391  0.00  0.00    -0.287 OA
BRANCH  12  14
ATOM     14  C   UNL     1     -11.749   0.995 -17.493  0.00  0.00    +0.022 A 
ATOM     15  C   UNL     1     -12.086  -0.155 -16.763  0.00  0.00    +0.012 A 
ATOM     16  C   UNL     1     -11.090  -0.976 -16.226  0.00  0.00    +0.001 A 
ATOM     17  C   UNL     1      -9.745  -0.671 -16.432  0.00  0.00    +0.000 A 
ATOM     18  C   UNL     1      -9.395   0.455 -17.176  0.00  0.00    +0.001 A 
ATOM     19  C   UNL     1     -10.390   1.281 -17.701  0.00  0.00    +0.012 A 
ENDBRANCH  12  14
ENDBRANCH   2  12
BRANCH   2  20
ATOM     20  C   UNL     1     -13.593   4.145 -17.272  0.00  0.00    +0.117 C 
BRANCH  20  21
ATOM     21  N   UNL     1     -13.685   5.642 -17.289  0.00  0.00    -0.326 NA
ATOM     22  H   UNL     1     -14.592   5.923 -17.661  0.00  0.00    +0.119 HD
ATOM     23  H   UNL     1     -13.581   6.000 -16.339  0.00  0.00    +0.119 HD
ENDBRANCH  20  21
ENDBRANCH   2  20
TORSDOF 6
ENDMDL
MODEL 2
REMARK VINA RESULT:      -7.4      1.445      1.787
REMARK  Name = min_compound980.pdb
REMARK  8 active torsions:
REMARK  status: ('A' for Active; 'I' for Inactive)
REMARK    1  A    between atoms: _3  and  _7
REMARK    2  A    between atoms: _6  and  _19
REMARK    3  A    between atoms: _8  and  _9
REMARK    4  A    between atoms: _8  and  _10
REMARK    5  A    between atoms: _9  and  _13
REMARK    6  A    between atoms: _10  and  _11
REMARK    7  A    between atoms: _19  and  _20
REMARK    8  A    between atoms: _19  and  _21
REMARK                            x       y       z     vdW  Elec       q    Type
REMARK                         _______ _______ _______ _____ _____    ______ ____
ROOT
ATOM      1  C   UNL     1     -14.129   2.850 -16.581  0.00  0.00    +0.016 C 
ATOM      2  C   UNL     1     -12.911   2.925 -17.433  0.00  0.00    +0.014 C 
ENDROOT
BRANCH   1   4
ATOM      3  C   UNL     1     -15.597   4.841 -16.251  0.00  0.00    +0.010 A 
ATOM      4  C   UNL     1     -14.744   3.884 -15.699  0.00  0.00    -0.025 A 
ATOM      5  C   UNL     1     -14.558   3.942 -14.311  0.00  0.00    +0.010 A 
ATOM      6  C   UNL     1     -15.146   4.958 -13.516  0.00  0.00    +0.023 A 
ATOM      7  C   UNL     1     -15.991   5.934 -14.062  0.00  0.00    +0.029 A 
ATOM      8  C   UNL     1     -16.209   5.833 -15.449  0.00  0.00    +0.023 A 
BRANCH   7   9
ATOM      9  N   UNL     1     -16.630   6.884 -13.246  0.00  0.00    -0.336 N 
ATOM     10  C   UNL     1     -17.477   7.918 -13.927  0.00  0.00    +0.129 C 
ATOM     11  C   UNL     1     -17.049   6.481 -11.903  0.00  0.00    +0.129 C 
ENDBRANCH   7   9
ENDBRANCH   1   4
BRANCH   2  12
ATOM     12  C   UNL     1     -12.470   1.885 -18.198  0.00  0.00    +0.190 C 
ATOM     13  O   UNL     1     -12.763   1.641 -19.411  0.00  0.00    -0.287 OA
BRANCH  12  14
ATOM     14  C   UNL     1     -11.517   0.947 -17.506  0.00  0.00    +0.022 A 
ATOM     15  C   UNL     1     -11.972  -0.155 -16.766  0.00  0.00    +0.012 A 
ATOM     16  C   UNL     1     -11.067  -1.040 -16.173  0.00  0.00    +0.001 A 
ATOM     17  C   UNL     1      -9.695  -0.849 -16.334  0.00  0.00    +0.000 A 
ATOM     18  C   UNL     1      -9.227   0.227 -17.087  0.00  0.00    +0.001 A 
ATOM     19  C   UNL     1     -10.133   1.118 -17.667  0.00  0.00    +0.012 A 
ENDBRANCH  12  14
ENDBRANCH   2  12
BRANCH   2  20
ATOM     20  C   UNL     1     -12.263   4.271 -17.297  0.00  0.00    +0.117 C 
BRANCH  20  21
ATOM     21  N   UNL     1     -11.615   5.617 -17.160  0.00  0.00    -0.326 NA
ATOM     22  H   UNL     1     -11.024   5.627 -16.329  0.00  0.00    +0.119 HD
ATOM     23  H   UNL     1     -11.046   5.805 -17.986  0.00  0.00    +0.119 HD
ENDBRANCH  20  21
ENDBRANCH   2  20
TORSDOF 6
ENDMDL
MODEL 3
REMARK VINA RESULT:      -7.1      1.460      1.886
REMARK  Name = min_compound980.pdb
REMARK  8 active torsions:
REMARK  status: ('A' for Active; 'I' for Inactive)
REMARK    1  A    between atoms: _3  and  _7
REMARK    2  A    between atoms: _6  and  _19
REMARK    3  A    between atoms: _8  and  _9
REMARK    4  A    between atoms: _8  and  _10
REMARK    5  A    between atoms: _9  and  _13
REMARK    6  A    between atoms: _10  and  _11
REMARK    7  A    between atoms: _19  and  _20
REMARK    8  A    between atoms: _19  and  _21
REMARK                            x       y       z     vdW  Elec       q    Type
REMARK                         _______ _______ _______ _____ _____    ______ ____
ROOT
ATOM      1  C   UNL     1     -13.576   3.409 -15.260  0.00  0.00    +0.016 C 
ATOM      2  C   UNL     1     -13.225   3.280 -16.701  0.00  0.00    +0.014 C 
ENDROOT
BRANCH   1   4
ATOM      3  C   UNL     1     -15.223   4.713 -13.913  0.00  0.00    +0.010 A 
ATOM      4  C   UNL     1     -14.912   3.545 -14.610  0.00  0.00    -0.025 A 
ATOM      5  C   UNL     1     -15.923   2.578 -14.687  0.00  0.00    +0.010 A 
ATOM      6  C   UNL     1     -17.170   2.741 -14.033  0.00  0.00    +0.023 A 
ATOM      7  C   UNL     1     -17.488   3.902 -13.316  0.00  0.00    +0.029 A 
ATOM      8  C   UNL     1     -16.482   4.886 -13.290  0.00  0.00    +0.023 A 
BRANCH   7   9
ATOM      9  N   UNL     1     -18.760   4.081 -12.744  0.00  0.00    -0.336 N 
ATOM     10  C   UNL     1     -19.949   3.716 -13.583  0.00  0.00    +0.129 C 
ATOM     11  C   UNL     1     -18.906   3.910 -11.299  0.00  0.00    +0.129 C 
ENDBRANCH   7   9
ENDBRANCH   1   4
BRANCH   2  12
ATOM     12  C   UNL     1     -11.942   3.158 -17.148  0.00  0.00    +0.190 C 
ATOM     13  O   UNL     1     -11.206   4.072 -17.640  0.00  0.00    -0.287 OA
BRANCH  12  14
ATOM     14  C   UNL     1     -11.353   1.779 -17.018  0.00  0.00    +0.022 A 
ATOM     15  C   UNL     1     -12.138   0.670 -16.668  0.00  0.00    +0.012 A 
ATOM     16  C   UNL     1     -11.577  -0.609 -16.602  0.00  0.00    +0.001 A 
ATOM     17  C   UNL     1     -10.230  -0.799 -16.909  0.00  0.00    +0.000 A 
ATOM     18  C   UNL     1      -9.443   0.289 -17.283  0.00  0.00    +0.001 A 
ATOM     19  C   UNL     1     -10.001   1.568 -17.336  0.00  0.00    +0.012 A 
ENDBRANCH  12  14
ENDBRANCH   2  12
BRANCH   2  20
ATOM     20  C   UNL     1     -14.464   3.329 -17.544  0.00  0.00    +0.117 C 
BRANCH  20  21
ATOM     21  N   UNL     1     -15.704   3.377 -18.388  0.00  0.00    -0.326 NA
ATOM     22  H   UNL     1     -16.478   3.745 -17.834  0.00  0.00    +0.119 HD
ATOM     23  H   UNL     1     -15.543   3.982 -19.193  0.00  0.00    +0.119 HD
ENDBRANCH  20  21
ENDBRANCH   2  20
TORSDOF 6
ENDMDL
MODEL 4
REMARK VINA RESULT:      -7.1      1.791      2.147
REMARK  Name = min_compound980.pdb
REMARK  8 active torsions:
REMARK  status: ('A' for Active; 'I' for Inactive)
REMARK    1  A    between atoms: _3  and  _7
REMARK    2  A    between atoms: _6  and  _19
REMARK    3  A    between atoms: _8  and  _9
REMARK    4  A    between atoms: _8  and  _10
REMARK    5  A    between atoms: _9  and  _13
REMARK    6  A    between atoms: _10  and  _11
REMARK    7  A    between atoms: _19  and  _20
REMARK    8  A    between atoms: _19  and  _21
REMARK                            x       y       z     vdW  Elec       q    Type
REMARK                         _______ _______ _______ _____ _____    ______ ____
ROOT
ATOM      1  C   UNL     1     -13.347   3.256 -15.149  0.00  0.00    +0.016 C 
ATOM      2  C   UNL     1     -12.519   3.826 -16.246  0.00  0.00    +0.014 C 
ENDROOT
BRANCH   1   4
ATOM      3  C   UNL     1     -15.734   2.542 -15.298  0.00  0.00    +0.010 A 
ATOM      4  C   UNL     1     -14.792   3.462 -14.835  0.00  0.00    -0.025 A 
ATOM      5  C   UNL     1     -15.282   4.515 -14.052  0.00  0.00    +0.010 A 
ATOM      6  C   UNL     1     -16.666   4.682 -13.799  0.00  0.00    +0.023 A 
ATOM      7  C   UNL     1     -17.624   3.775 -14.273  0.00  0.00    +0.029 A 
ATOM      8  C   UNL     1     -17.111   2.694 -15.015  0.00  0.00    +0.023 A 
BRANCH   7   9
ATOM      9  N   UNL     1     -18.984   3.912 -13.942  0.00  0.00    -0.336 N 
ATOM     10  C   UNL     1     -19.987   3.394 -14.930  0.00  0.00    +0.129 C 
ATOM     11  C   UNL     1     -19.369   3.853 -12.532  0.00  0.00    +0.129 C 
ENDBRANCH   7   9
ENDBRANCH   1   4
BRANCH   2  12
ATOM     12  C   UNL     1     -11.196   3.538 -16.410  0.00  0.00    +0.190 C 
ATOM     13  O   UNL     1     -10.227   4.361 -16.457  0.00  0.00    -0.287 OA
BRANCH  12  14
ATOM     14  C   UNL     1     -10.875   2.072 -16.528  0.00  0.00    +0.022 A 
ATOM     15  C   UNL     1     -10.247   1.366 -15.490  0.00  0.00    +0.012 A 
ATOM     16  C   UNL     1     -10.004  -0.006 -15.604  0.00  0.00    +0.001 A 
ATOM     17  C   UNL     1     -10.408  -0.695 -16.748  0.00  0.00    +0.000 A 
ATOM     18  C   UNL     1     -11.054  -0.013 -17.777  0.00  0.00    +0.001 A 
ATOM     19  C   UNL     1     -11.285   1.360 -17.667  0.00  0.00    +0.012 A 
ENDBRANCH  12  14
ENDBRANCH   2  12
BRANCH   2  20
ATOM     20  C   UNL     1     -13.343   4.750 -17.094  0.00  0.00    +0.117 C 
BRANCH  20  21
ATOM     21  N   UNL     1     -14.167   5.673 -17.941  0.00  0.00    -0.326 NA
ATOM     22  H   UNL     1     -13.656   6.543 -18.091  0.00  0.00    +0.119 HD
ATOM     23  H   UNL     1     -14.357   5.231 -18.840  0.00  0.00    +0.119 HD
ENDBRANCH  20  21
ENDBRANCH   2  20
TORSDOF 6
ENDMDL
MODEL 5
REMARK VINA RESULT:      -7.0      5.370      8.249
REMARK  Name = min_compound980.pdb
REMARK  8 active torsions:
REMARK  status: ('A' for Active; 'I' for Inactive)
REMARK    1  A    between atoms: _3  and  _7
REMARK    2  A    between atoms: _6  and  _19
REMARK    3  A    between atoms: _8  and  _9
REMARK    4  A    between atoms: _8  and  _10
REMARK    5  A    between atoms: _9  and  _13
REMARK    6  A    between atoms: _10  and  _11
REMARK    7  A    between atoms: _19  and  _20
REMARK    8  A    between atoms: _19  and  _21
REMARK                            x       y       z     vdW  Elec       q    Type
REMARK                         _______ _______ _______ _____ _____    ______ ____
ROOT
ATOM      1  C   UNL     1     -16.900   2.132  -9.347  0.00  0.00    +0.016 C 
ATOM      2  C   UNL     1     -17.296   3.415  -9.989  0.00  0.00    +0.014 C 
ENDROOT
BRANCH   1   4
ATOM      3  C   UNL     1     -14.945   1.491  -7.935  0.00  0.00    +0.010 A 
ATOM      4  C   UNL     1     -16.283   1.881  -8.012  0.00  0.00    -0.025 A 
ATOM      5  C   UNL     1     -16.952   2.055  -6.794  0.00  0.00    +0.010 A 
ATOM      6  C   UNL     1     -16.330   1.782  -5.549  0.00  0.00    +0.023 A 
ATOM      7  C   UNL     1     -14.993   1.374  -5.460  0.00  0.00    +0.029 A 
ATOM      8  C   UNL     1     -14.318   1.253  -6.690  0.00  0.00    +0.023 A 
BRANCH   7   9
ATOM      9  N   UNL     1     -14.369   1.189  -4.214  0.00  0.00    -0.336 N 
ATOM     10  C   UNL     1     -13.615   2.353  -3.642  0.00  0.00    +0.129 C 
ATOM     11  C   UNL     1     -14.990   0.279  -3.251  0.00  0.00    +0.129 C 
ENDBRANCH   7   9
ENDBRANCH   1   4
BRANCH   2  12
ATOM     12  C   UNL     1     -17.861   3.487 -11.229  0.00  0.00    +0.190 C 
ATOM     13  O   UNL     1     -19.098   3.583 -11.508  0.00  0.00    -0.287 OA
BRANCH  12  14
ATOM     14  C   UNL     1     -16.884   3.463 -12.374  0.00  0.00    +0.022 A 
ATOM     15  C   UNL     1     -17.081   2.645 -13.497  0.00  0.00    +0.012 A 
ATOM     16  C   UNL     1     -16.186   2.677 -14.570  0.00  0.00    +0.001 A 
ATOM     17  C   UNL     1     -15.095   3.545 -14.545  0.00  0.00    +0.000 A 
ATOM     18  C   UNL     1     -14.899   4.382 -13.448  0.00  0.00    +0.001 A 
ATOM     19  C   UNL     1     -15.787   4.340 -12.371  0.00  0.00    +0.012 A 
ENDBRANCH  12  14
ENDBRANCH   2  12
BRANCH   2  20
ATOM     20  C   UNL     1     -16.961   4.570  -9.093  0.00  0.00    +0.117 C 
BRANCH  20  21
ATOM     21  N   UNL     1     -16.626   5.725  -8.196  0.00  0.00    -0.326 NA
ATOM     22  H   UNL     1     -17.167   6.542  -8.478  0.00  0.00    +0.119 HD
ATOM     23  H   UNL     1     -16.853   5.483  -7.231  0.00  0.00    +0.119 HD
ENDBRANCH  20  21
ENDBRANCH   2  20
TORSDOF 6
ENDMDL
MODEL 6
REMARK VINA RESULT:      -6.9      1.614      2.004
REMARK  Name = min_compound980.pdb
REMARK  8 active torsions:
REMARK  status: ('A' for Active; 'I' for Inactive)
REMARK    1  A    between atoms: _3  and  _7
REMARK    2  A    between atoms: _6  and  _19
REMARK    3  A    between atoms: _8  and  _9
REMARK    4  A    between atoms: _8  and  _10
REMARK    5  A    between atoms: _9  and  _13
REMARK    6  A    between atoms: _10  and  _11
REMARK    7  A    between atoms: _19  and  _20
REMARK    8  A    between atoms: _19  and  _21
REMARK                            x       y       z     vdW  Elec       q    Type
REMARK                         _______ _______ _______ _____ _____    ______ ____
ROOT
ATOM      1  C   UNL     1     -15.645   2.280 -15.682  0.00  0.00    +0.016 C 
ATOM      2  C   UNL     1     -14.696   3.098 -16.486  0.00  0.00    +0.014 C 
ENDROOT
BRANCH   1   4
ATOM      3  C   UNL     1     -17.962   3.022 -15.123  0.00  0.00    +0.010 A 
ATOM      4  C   UNL     1     -16.673   2.709 -14.689  0.00  0.00    -0.025 A 
ATOM      5  C   UNL     1     -16.447   2.780 -13.308  0.00  0.00    +0.010 A 
ATOM      6  C   UNL     1     -17.448   3.215 -12.404  0.00  0.00    +0.023 A 
ATOM      7  C   UNL     1     -18.741   3.549 -12.831  0.00  0.00    +0.029 A 
ATOM      8  C   UNL     1     -18.968   3.423 -14.214  0.00  0.00    +0.023 A 
BRANCH   7   9
ATOM      9  N   UNL     1     -19.745   3.899 -11.910  0.00  0.00    -0.336 N 
ATOM     10  C   UNL     1     -19.389   3.855 -10.454  0.00  0.00    +0.129 C 
ATOM     11  C   UNL     1     -20.740   4.895 -12.308  0.00  0.00    +0.129 C 
ENDBRANCH   7   9
ENDBRANCH   1   4
BRANCH   2  12
ATOM     12  C   UNL     1     -13.807   2.557 -17.368  0.00  0.00    +0.190 C 
ATOM     13  O   UNL     1     -13.862   2.593 -18.638  0.00  0.00    -0.287 OA
BRANCH  12  14
ATOM     14  C   UNL     1     -12.631   1.859 -16.737  0.00  0.00    +0.022 A 
ATOM     15  C   UNL     1     -12.290   0.540 -17.070  0.00  0.00    +0.012 A 
ATOM     16  C   UNL     1     -11.164  -0.070 -16.508  0.00  0.00    +0.001 A 
ATOM     17  C   UNL     1     -10.352   0.640 -15.624  0.00  0.00    +0.000 A 
ATOM     18  C   UNL     1     -10.665   1.960 -15.302  0.00  0.00    +0.001 A 
ATOM     19  C   UNL     1     -11.796   2.563 -15.855  0.00  0.00    +0.012 A 
ENDBRANCH  12  14
ENDBRANCH   2  12
BRANCH   2  20
ATOM     20  C   UNL     1     -14.858   4.553 -16.160  0.00  0.00    +0.117 C 
BRANCH  20  21
ATOM     21  N   UNL     1     -15.019   6.008 -15.833  0.00  0.00    -0.326 NA
ATOM     22  H   UNL     1     -14.142   6.373 -15.462  0.00  0.00    +0.119 HD
ATOM     23  H   UNL     1     -15.270   6.520 -16.679  0.00  0.00    +0.119 HD
ENDBRANCH  20  21
ENDBRANCH   2  20
TORSDOF 6
ENDMDL
MODEL 7
REMARK VINA RESULT:      -6.8      3.349      5.145
REMARK  Name = min_compound980.pdb
REMARK  8 active torsions:
REMARK  status: ('A' for Active; 'I' for Inactive)
REMARK    1  A    between atoms: _3  and  _7
REMARK    2  A    between atoms: _6  and  _19
REMARK    3  A    between atoms: _8  and  _9
REMARK    4  A    between atoms: _8  and  _10
REMARK    5  A    between atoms: _9  and  _13
REMARK    6  A    between atoms: _10  and  _11
REMARK    7  A    between atoms: _19  and  _20
REMARK    8  A    between atoms: _19  and  _21
REMARK                            x       y       z     vdW  Elec       q    Type
REMARK                         _______ _______ _______ _____ _____    ______ ____
ROOT
ATOM      1  C   UNL     1     -12.142   5.235 -17.395  0.00  0.00    +0.016 C 
ATOM      2  C   UNL     1     -12.073   4.153 -16.376  0.00  0.00    +0.014 C 
ENDROOT
BRANCH   1   4
ATOM      3  C   UNL     1     -13.732   7.155 -17.278  0.00  0.00    +0.010 A 
ATOM      4  C   UNL     1     -13.323   5.983 -17.917  0.00  0.00    -0.025 A 
ATOM      5  C   UNL     1     -14.045   5.612 -19.059  0.00  0.00    +0.010 A 
ATOM      6  C   UNL     1     -15.175   6.342 -19.504  0.00  0.00    +0.023 A 
ATOM      7  C   UNL     1     -15.606   7.510 -18.861  0.00  0.00    +0.029 A 
ATOM      8  C   UNL     1     -14.840   7.899 -17.746  0.00  0.00    +0.023 A 
BRANCH   7   9
ATOM      9  N   UNL     1     -16.678   8.267 -19.365  0.00  0.00    -0.336 N 
ATOM     10  C   UNL     1     -17.209   9.370 -18.500  0.00  0.00    +0.129 C 
ATOM     11  C   UNL     1     -16.767   8.473 -20.811  0.00  0.00    +0.129 C 
ENDBRANCH   7   9
ENDBRANCH   1   4
BRANCH   2  12
ATOM     12  C   UNL     1     -10.905   3.561 -15.994  0.00  0.00    +0.190 C 
ATOM     13  O   UNL     1      -9.916   4.109 -15.411  0.00  0.00    -0.287 OA
BRANCH  12  14
ATOM     14  C   UNL     1     -10.811   2.088 -16.294  0.00  0.00    +0.022 A 
ATOM     15  C   UNL     1     -11.214   1.559 -17.530  0.00  0.00    +0.012 A 
ATOM     16  C   UNL     1     -11.072   0.195 -17.803  0.00  0.00    +0.001 A 
ATOM     17  C   UNL     1     -10.502  -0.652 -16.853  0.00  0.00    +0.000 A 
ATOM     18  C   UNL     1     -10.075  -0.137 -15.631  0.00  0.00    +0.001 A 
ATOM     19  C   UNL     1     -10.229   1.223 -15.354  0.00  0.00    +0.012 A 
ENDBRANCH  12  14
ENDBRANCH   2  12
BRANCH   2  20
ATOM     20  C   UNL     1     -13.448   3.820 -15.877  0.00  0.00    +0.117 C 
BRANCH  20  21
ATOM     21  N   UNL     1     -14.823   3.487 -15.379  0.00  0.00    -0.326 NA
ATOM     22  H   UNL     1     -14.750   2.943 -14.518  0.00  0.00    +0.119 HD
ATOM     23  H   UNL     1     -15.335   4.349 -15.194  0.00  0.00    +0.119 HD
ENDBRANCH  20  21
ENDBRANCH   2  20
TORSDOF 6
ENDMDL
MODEL 8
REMARK VINA RESULT:      -6.8      4.237      6.820
REMARK  Name = min_compound980.pdb
REMARK  8 active torsions:
REMARK  status: ('A' for Active; 'I' for Inactive)
REMARK    1  A    between atoms: _3  and  _7
REMARK    2  A    between atoms: _6  and  _19
REMARK    3  A    between atoms: _8  and  _9
REMARK    4  A    between atoms: _8  and  _10
REMARK    5  A    between atoms: _9  and  _13
REMARK    6  A    between atoms: _10  and  _11
REMARK    7  A    between atoms: _19  and  _20
REMARK    8  A    between atoms: _19  and  _21
REMARK                            x       y       z     vdW  Elec       q    Type
REMARK                         _______ _______ _______ _____ _____    ______ ____
ROOT
ATOM      1  C   UNL     1     -13.245   4.310 -18.122  0.00  0.00    +0.016 C 
ATOM      2  C   UNL     1     -13.369   2.829 -18.044  0.00  0.00    +0.014 C 
ENDROOT
BRANCH   1   4
ATOM      3  C   UNL     1     -11.897   5.942 -19.445  0.00  0.00    +0.010 A 
ATOM      4  C   UNL     1     -13.068   5.194 -19.311  0.00  0.00    -0.025 A 
ATOM      5  C   UNL     1     -13.997   5.298 -20.355  0.00  0.00    +0.010 A 
ATOM      6  C   UNL     1     -13.796   6.169 -21.455  0.00  0.00    +0.023 A 
ATOM      7  C   UNL     1     -12.632   6.938 -21.592  0.00  0.00    +0.029 A 
ATOM      8  C   UNL     1     -11.685   6.784 -20.561  0.00  0.00    +0.023 A 
BRANCH   7   9
ATOM      9  N   UNL     1     -12.413   7.733 -22.731  0.00  0.00    -0.336 N 
ATOM     10  C   UNL     1     -11.467   7.204 -23.767  0.00  0.00    +0.129 C 
ATOM     11  C   UNL     1     -13.508   8.573 -23.217  0.00  0.00    +0.129 C 
ENDBRANCH   7   9
ENDBRANCH   1   4
BRANCH   2  12
ATOM     12  C   UNL     1     -13.533   2.154 -16.870  0.00  0.00    +0.190 C 
ATOM     13  O   UNL     1     -14.563   2.143 -16.123  0.00  0.00    -0.287 OA
BRANCH  12  14
ATOM     14  C   UNL     1     -12.350   1.325 -16.444  0.00  0.00    +0.022 A 
ATOM     15  C   UNL     1     -12.246  -0.036 -16.771  0.00  0.00    +0.012 A 
ATOM     16  C   UNL     1     -11.115  -0.773 -16.406  0.00  0.00    +0.001 A 
ATOM     17  C   UNL     1     -10.063  -0.152 -15.732  0.00  0.00    +0.000 A 
ATOM     18  C   UNL     1     -10.142   1.205 -15.422  0.00  0.00    +0.001 A 
ATOM     19  C   UNL     1     -11.278   1.936 -15.776  0.00  0.00    +0.012 A 
ENDBRANCH  12  14
ENDBRANCH   2  12
BRANCH   2  20
ATOM     20  C   UNL     1     -13.266   2.226 -19.414  0.00  0.00    +0.117 C 
BRANCH  20  21
ATOM     21  N   UNL     1     -13.162   1.623 -20.783  0.00  0.00    -0.326 NA
ATOM     22  H   UNL     1     -12.181   1.570 -21.058  0.00  0.00    +0.119 HD
ATOM     23  H   UNL     1     -13.563   0.685 -20.773  0.00  0.00    +0.119 HD
ENDBRANCH  20  21
ENDBRANCH   2  20
TORSDOF 6
ENDMDL
MODEL 9
REMARK VINA RESULT:      -6.7      6.862      9.442
REMARK  Name = min_compound980.pdb
REMARK  8 active torsions:
REMARK  status: ('A' for Active; 'I' for Inactive)
REMARK    1  A    between atoms: _3  and  _7
REMARK    2  A    between atoms: _6  and  _19
REMARK    3  A    between atoms: _8  and  _9
REMARK    4  A    between atoms: _8  and  _10
REMARK    5  A    between atoms: _9  and  _13
REMARK    6  A    between atoms: _10  and  _11
REMARK    7  A    between atoms: _19  and  _20
REMARK    8  A    between atoms: _19  and  _21
REMARK                            x       y       z     vdW  Elec       q    Type
REMARK                         _______ _______ _______ _____ _____    ______ ____
ROOT
ATOM      1  C   UNL     1     -15.975   2.297  -8.670  0.00  0.00    +0.016 C 
ATOM      2  C   UNL     1     -16.639   1.226  -7.877  0.00  0.00    +0.014 C 
ENDROOT
BRANCH   1   4
ATOM      3  C   UNL     1     -16.709   4.640  -9.112  0.00  0.00    +0.010 A 
ATOM      4  C   UNL     1     -16.569   3.329  -9.568  0.00  0.00    -0.025 A 
ATOM      5  C   UNL     1     -16.968   3.083 -10.889  0.00  0.00    +0.010 A 
ATOM      6  C   UNL     1     -17.549   4.091 -11.698  0.00  0.00    +0.023 A 
ATOM      7  C   UNL     1     -17.710   5.408 -11.245  0.00  0.00    +0.029 A 
ATOM      8  C   UNL     1     -17.258   5.652  -9.935  0.00  0.00    +0.023 A 
BRANCH   7   9
ATOM      9  N   UNL     1     -18.212   6.413 -12.091  0.00  0.00    -0.336 N 
ATOM     10  C   UNL     1     -19.258   7.328 -11.526  0.00  0.00    +0.129 C 
ATOM     11  C   UNL     1     -17.319   6.988 -13.098  0.00  0.00    +0.129 C 
ENDBRANCH   7   9
ENDBRANCH   1   4
BRANCH   2  12
ATOM     12  C   UNL     1     -15.955   0.349  -7.088  0.00  0.00    +0.190 C 
ATOM     13  O   UNL     1     -15.798  -0.899  -7.277  0.00  0.00    -0.287 OA
BRANCH  12  14
ATOM     14  C   UNL     1     -15.313   0.958  -5.870  0.00  0.00    +0.022 A 
ATOM     15  C   UNL     1     -15.935   1.983  -5.141  0.00  0.00    +0.012 A 
ATOM     16  C   UNL     1     -15.341   2.499  -3.985  0.00  0.00    +0.001 A 
ATOM     17  C   UNL     1     -14.129   1.979  -3.530  0.00  0.00    +0.000 A 
ATOM     18  C   UNL     1     -13.511   0.945  -4.230  0.00  0.00    +0.001 A 
ATOM     19  C   UNL     1     -14.099   0.439  -5.391  0.00  0.00    +0.012 A 
ENDBRANCH  12  14
ENDBRANCH   2  12
BRANCH   2  20
ATOM     20  C   UNL     1     -18.122   1.256  -8.102  0.00  0.00    +0.117 C 
BRANCH  20  21
ATOM     21  N   UNL     1     -19.605   1.287  -8.326  0.00  0.00    -0.326 NA
ATOM     22  H   UNL     1     -19.806   1.769  -9.202  0.00  0.00    +0.119 HD
ATOM     23  H   UNL     1     -19.961   0.332  -8.374  0.00  0.00    +0.119 HD
ENDBRANCH  20  21
ENDBRANCH   2  20
TORSDOF 6
ENDMDL
