MODEL 1
REMARK VINA RESULT:      -6.2      0.000      0.000
REMARK  Name = min_compound914.pdb
REMARK  1 active torsions:
REMARK  status: ('A' for Active; 'I' for Inactive)
REMARK    1  A    between atoms: _7  and  _15
REMARK                            x       y       z     vdW  Elec       q    Type
REMARK                         _______ _______ _______ _____ _____    ______ ____
ROOT
ATOM      1  N   UNL     1     -14.573  -1.965  -4.995  0.00  0.00    -0.269 N 
ATOM      2  H   UNL     1     -14.063  -2.736  -5.397  0.00  0.00    +0.156 HD
ATOM      3  C   UNL     1     -14.951  -2.100  -3.661  0.00  0.00    +0.310 C 
ATOM      4  N   UNL     1     -14.522  -3.315  -3.163  0.00  0.00    -0.248 N 
ATOM      5  H   UNL     1     -14.013  -3.962  -3.737  0.00  0.00    +0.158 HD
ATOM      6  C   UNL     1     -14.757  -3.710  -1.875  0.00  0.00    +0.165 A 
ATOM      7  S   UNL     1     -14.123  -5.255  -1.505  0.00  0.00    -0.060 S 
ATOM      8  C   UNL     1     -14.730  -5.102   0.092  0.00  0.00    +0.068 A 
ATOM      9  C   UNL     1     -15.370  -3.887   0.224  0.00  0.00    +0.120 A 
ATOM     10  N   UNL     1     -15.381  -3.095  -0.906  0.00  0.00    -0.233 NA
ATOM     11  O   UNL     1     -15.573  -1.259  -3.030  0.00  0.00    -0.252 OA
ENDROOT
BRANCH   1  15
ATOM     12  C   UNL     1     -15.476   1.235  -7.599  0.00  0.00    +0.020 A 
ATOM     13  C   UNL     1     -16.424   0.269  -7.276  0.00  0.00    +0.043 A 
ATOM     14  C   UNL     1     -16.104  -0.781  -6.412  0.00  0.00    +0.043 A 
ATOM     15  C   UNL     1     -14.820  -0.876  -5.858  0.00  0.00    +0.036 A 
ATOM     16  C   UNL     1     -13.873   0.097  -6.187  0.00  0.00    +0.023 A 
ATOM     17 CL   UNL     1     -18.007   0.368  -7.946  0.00  0.00    -0.083 Cl
ATOM     18  C   UNL     1     -14.199   1.147  -7.052  0.00  0.00    +0.003 A 
ENDBRANCH   1  15
TORSDOF 1
ENDMDL
MODEL 2
REMARK VINA RESULT:      -6.1      2.082      2.537
REMARK  Name = min_compound914.pdb
REMARK  1 active torsions:
REMARK  status: ('A' for Active; 'I' for Inactive)
REMARK    1  A    between atoms: _7  and  _15
REMARK                            x       y       z     vdW  Elec       q    Type
REMARK                         _______ _______ _______ _____ _____    ______ ____
ROOT
ATOM      1  N   UNL     1     -14.894  -2.222  -3.702  0.00  0.00    -0.269 N 
ATOM      2  H   UNL     1     -15.493  -2.675  -4.374  0.00  0.00    +0.156 HD
ATOM      3  C   UNL     1     -14.524  -2.976  -2.592  0.00  0.00    +0.310 C 
ATOM      4  N   UNL     1     -15.085  -4.237  -2.662  0.00  0.00    -0.248 N 
ATOM      5  H   UNL     1     -15.667  -4.505  -3.434  0.00  0.00    +0.158 HD
ATOM      6  C   UNL     1     -14.886  -5.188  -1.700  0.00  0.00    +0.165 A 
ATOM      7  S   UNL     1     -15.688  -6.665  -2.021  0.00  0.00    -0.060 S 
ATOM      8  C   UNL     1     -15.056  -7.304  -0.559  0.00  0.00    +0.068 A 
ATOM      9  C   UNL     1     -14.283  -6.346   0.063  0.00  0.00    +0.120 A 
ATOM     10  N   UNL     1     -14.190  -5.137  -0.596  0.00  0.00    -0.233 NA
ATOM     11  O   UNL     1     -13.806  -2.572  -1.689  0.00  0.00    -0.252 OA
ENDROOT
BRANCH   1  15
ATOM     12  C   UNL     1     -13.829   1.723  -4.772  0.00  0.00    +0.020 A 
ATOM     13  C   UNL     1     -14.139   0.767  -5.733  0.00  0.00    +0.043 A 
ATOM     14  C   UNL     1     -14.489  -0.533  -5.357  0.00  0.00    +0.043 A 
ATOM     15  C   UNL     1     -14.533  -0.891  -4.003  0.00  0.00    +0.036 A 
ATOM     16  C   UNL     1     -14.219   0.075  -3.043  0.00  0.00    +0.023 A 
ATOM     17 CL   UNL     1     -14.091   1.186  -7.402  0.00  0.00    -0.083 Cl
ATOM     18  C   UNL     1     -13.870   1.375  -3.425  0.00  0.00    +0.003 A 
ENDBRANCH   1  15
TORSDOF 1
ENDMDL
MODEL 3
REMARK VINA RESULT:      -6.0      5.775      8.738
REMARK  Name = min_compound914.pdb
REMARK  1 active torsions:
REMARK  status: ('A' for Active; 'I' for Inactive)
REMARK    1  A    between atoms: _7  and  _15
REMARK                            x       y       z     vdW  Elec       q    Type
REMARK                         _______ _______ _______ _____ _____    ______ ____
ROOT
ATOM      1  N   UNL     1     -14.806   1.746  -7.938  0.00  0.00    -0.269 N 
ATOM      2  H   UNL     1     -13.975   1.910  -8.483  0.00  0.00    +0.156 HD
ATOM      3  C   UNL     1     -15.949   2.442  -8.325  0.00  0.00    +0.310 C 
ATOM      4  N   UNL     1     -15.676   3.237  -9.422  0.00  0.00    -0.248 N 
ATOM      5  H   UNL     1     -14.761   3.260  -9.832  0.00  0.00    +0.158 HD
ATOM      6  C   UNL     1     -16.621   4.030 -10.012  0.00  0.00    +0.165 A 
ATOM      7  S   UNL     1     -16.032   4.915 -11.353  0.00  0.00    -0.060 S 
ATOM      8  C   UNL     1     -17.590   5.603 -11.558  0.00  0.00    +0.068 A 
ATOM      9  C   UNL     1     -18.441   5.109 -10.592  0.00  0.00    +0.120 A 
ATOM     10  N   UNL     1     -17.880   4.208  -9.710  0.00  0.00    -0.233 NA
ATOM     11  O   UNL     1     -17.034   2.356  -7.768  0.00  0.00    -0.252 OA
ENDROOT
BRANCH   1  15
ATOM     12  C   UNL     1     -14.321  -0.848  -4.640  0.00  0.00    +0.020 A 
ATOM     13  C   UNL     1     -13.918   0.482  -4.586  0.00  0.00    +0.043 A 
ATOM     14  C   UNL     1     -14.088   1.323  -5.688  0.00  0.00    +0.043 A 
ATOM     15  C   UNL     1     -14.669   0.836  -6.867  0.00  0.00    +0.036 A 
ATOM     16  C   UNL     1     -15.071  -0.501  -6.915  0.00  0.00    +0.023 A 
ATOM     17 CL   UNL     1     -13.202   1.100  -3.147  0.00  0.00    -0.083 Cl
ATOM     18  C   UNL     1     -14.899  -1.339  -5.808  0.00  0.00    +0.003 A 
ENDBRANCH   1  15
TORSDOF 1
ENDMDL
MODEL 4
REMARK VINA RESULT:      -6.0     14.149     15.591
REMARK  Name = min_compound914.pdb
REMARK  1 active torsions:
REMARK  status: ('A' for Active; 'I' for Inactive)
REMARK    1  A    between atoms: _7  and  _15
REMARK                            x       y       z     vdW  Elec       q    Type
REMARK                         _______ _______ _______ _____ _____    ______ ____
ROOT
ATOM      1  N   UNL     1     -12.139   2.456 -18.145  0.00  0.00    -0.269 N 
ATOM      2  H   UNL     1     -12.349   2.358 -19.126  0.00  0.00    +0.156 HD
ATOM      3  C   UNL     1     -12.575   3.627 -17.531  0.00  0.00    +0.310 C 
ATOM      4  N   UNL     1     -13.230   4.431 -18.445  0.00  0.00    -0.248 N 
ATOM      5  H   UNL     1     -13.340   4.148 -19.401  0.00  0.00    +0.158 HD
ATOM      6  C   UNL     1     -13.763   5.646 -18.111  0.00  0.00    +0.165 A 
ATOM      7  S   UNL     1     -14.521   6.444 -19.421  0.00  0.00    -0.060 S 
ATOM      8  C   UNL     1     -14.909   7.748 -18.377  0.00  0.00    +0.068 A 
ATOM      9  C   UNL     1     -14.434   7.479 -17.111  0.00  0.00    +0.120 A 
ATOM     10  N   UNL     1     -13.778   6.273 -16.966  0.00  0.00    -0.233 NA
ATOM     11  O   UNL     1     -12.399   3.898 -16.352  0.00  0.00    -0.252 OA
ENDROOT
BRANCH   1  15
ATOM     12  C   UNL     1     -10.180  -0.819 -16.335  0.00  0.00    +0.020 A 
ATOM     13  C   UNL     1     -11.564  -0.686 -16.296  0.00  0.00    +0.043 A 
ATOM     14  C   UNL     1     -12.192   0.405 -16.902  0.00  0.00    +0.043 A 
ATOM     15  C   UNL     1     -11.433   1.384 -17.558  0.00  0.00    +0.036 A 
ATOM     16  C   UNL     1     -10.043   1.245 -17.592  0.00  0.00    +0.023 A 
ATOM     17 CL   UNL     1     -12.514  -1.877 -15.494  0.00  0.00    -0.083 Cl
ATOM     18  C   UNL     1      -9.420   0.149 -16.985  0.00  0.00    +0.003 A 
ENDBRANCH   1  15
TORSDOF 1
ENDMDL
MODEL 5
REMARK VINA RESULT:      -5.9      2.951      3.312
REMARK  Name = min_compound914.pdb
REMARK  1 active torsions:
REMARK  status: ('A' for Active; 'I' for Inactive)
REMARK    1  A    between atoms: _7  and  _15
REMARK                            x       y       z     vdW  Elec       q    Type
REMARK                         _______ _______ _______ _____ _____    ______ ____
ROOT
ATOM      1  N   UNL     1     -14.775  -2.267  -3.273  0.00  0.00    -0.269 N 
ATOM      2  H   UNL     1     -14.647  -2.789  -4.125  0.00  0.00    +0.156 HD
ATOM      3  C   UNL     1     -14.540  -2.952  -2.084  0.00  0.00    +0.310 C 
ATOM      4  N   UNL     1     -14.165  -4.255  -2.349  0.00  0.00    -0.248 N 
ATOM      5  H   UNL     1     -14.091  -4.593  -3.291  0.00  0.00    +0.158 HD
ATOM      6  C   UNL     1     -13.873  -5.155  -1.362  0.00  0.00    +0.165 A 
ATOM      7  S   UNL     1     -13.435  -6.700  -1.951  0.00  0.00    -0.060 S 
ATOM      8  C   UNL     1     -13.232  -7.238  -0.335  0.00  0.00    +0.068 A 
ATOM      9  C   UNL     1     -13.512  -6.203   0.532  0.00  0.00    +0.120 A 
ATOM     10  N   UNL     1     -13.879  -5.012  -0.063  0.00  0.00    -0.233 NA
ATOM     11  O   UNL     1     -14.653  -2.463  -0.969  0.00  0.00    -0.252 OA
ENDROOT
BRANCH   1  15
ATOM     12  C   UNL     1     -15.804   1.804  -3.734  0.00  0.00    +0.020 A 
ATOM     13  C   UNL     1     -14.483   1.401  -3.573  0.00  0.00    +0.043 A 
ATOM     14  C   UNL     1     -14.165   0.049  -3.422  0.00  0.00    +0.043 A 
ATOM     15  C   UNL     1     -15.176  -0.922  -3.432  0.00  0.00    +0.036 A 
ATOM     16  C   UNL     1     -16.501  -0.510  -3.593  0.00  0.00    +0.023 A 
ATOM     17 CL   UNL     1     -13.227   2.578  -3.558  0.00  0.00    -0.083 Cl
ATOM     18  C   UNL     1     -16.814   0.846  -3.745  0.00  0.00    +0.003 A 
ENDBRANCH   1  15
TORSDOF 1
ENDMDL
MODEL 6
REMARK VINA RESULT:      -5.9     14.665     16.842
REMARK  Name = min_compound914.pdb
REMARK  1 active torsions:
REMARK  status: ('A' for Active; 'I' for Inactive)
REMARK    1  A    between atoms: _7  and  _15
REMARK                            x       y       z     vdW  Elec       q    Type
REMARK                         _______ _______ _______ _____ _____    ______ ____
ROOT
ATOM      1  N   UNL     1     -12.517   1.437 -19.265  0.00  0.00    -0.269 N 
ATOM      2  H   UNL     1     -12.198   0.848 -20.017  0.00  0.00    +0.156 HD
ATOM      3  C   UNL     1     -13.603   2.264 -19.541  0.00  0.00    +0.310 C 
ATOM      4  N   UNL     1     -14.021   2.084 -20.846  0.00  0.00    -0.248 N 
ATOM      5  H   UNL     1     -13.562   1.431 -21.454  0.00  0.00    +0.158 HD
ATOM      6  C   UNL     1     -15.073   2.771 -21.386  0.00  0.00    +0.165 A 
ATOM      7  S   UNL     1     -15.390   2.366 -23.018  0.00  0.00    -0.060 S 
ATOM      8  C   UNL     1     -16.687   3.489 -23.024  0.00  0.00    +0.068 A 
ATOM      9  C   UNL     1     -16.781   4.088 -21.786  0.00  0.00    +0.120 A 
ATOM     10  N   UNL     1     -15.853   3.672 -20.852  0.00  0.00    -0.233 NA
ATOM     11  O   UNL     1     -14.107   3.037 -18.739  0.00  0.00    -0.252 OA
ENDROOT
BRANCH   1  15
ATOM     12  C   UNL     1     -10.372   1.275 -15.630  0.00  0.00    +0.020 A 
ATOM     13  C   UNL     1     -10.698   2.487 -16.229  0.00  0.00    +0.043 A 
ATOM     14  C   UNL     1     -11.409   2.518 -17.431  0.00  0.00    +0.043 A 
ATOM     15  C   UNL     1     -11.803   1.324 -18.052  0.00  0.00    +0.036 A 
ATOM     16  C   UNL     1     -11.471   0.111 -17.445  0.00  0.00    +0.023 A 
ATOM     17 CL   UNL     1     -10.224   3.964 -15.483  0.00  0.00    -0.083 Cl
ATOM     18  C   UNL     1     -10.759   0.085 -16.240  0.00  0.00    +0.003 A 
ENDBRANCH   1  15
TORSDOF 1
ENDMDL
MODEL 7
REMARK VINA RESULT:      -5.8     14.534     17.015
REMARK  Name = min_compound914.pdb
REMARK  1 active torsions:
REMARK  status: ('A' for Active; 'I' for Inactive)
REMARK    1  A    between atoms: _7  and  _15
REMARK                            x       y       z     vdW  Elec       q    Type
REMARK                         _______ _______ _______ _____ _____    ______ ____
ROOT
ATOM      1  N   UNL     1     -13.023   1.447 -18.824  0.00  0.00    -0.269 N 
ATOM      2  H   UNL     1     -13.343   0.530 -19.090  0.00  0.00    +0.156 HD
ATOM      3  C   UNL     1     -13.449   2.508 -19.620  0.00  0.00    +0.310 C 
ATOM      4  N   UNL     1     -14.253   2.044 -20.644  0.00  0.00    -0.248 N 
ATOM      5  H   UNL     1     -14.462   1.067 -20.740  0.00  0.00    +0.158 HD
ATOM      6  C   UNL     1     -14.811   2.873 -21.578  0.00  0.00    +0.165 A 
ATOM      7  S   UNL     1     -15.766   2.054 -22.737  0.00  0.00    -0.060 S 
ATOM      8  C   UNL     1     -16.100   3.556 -23.495  0.00  0.00    +0.068 A 
ATOM      9  C   UNL     1     -15.461   4.568 -22.810  0.00  0.00    +0.120 A 
ATOM     10  N   UNL     1     -14.724   4.169 -21.712  0.00  0.00    -0.233 NA
ATOM     11  O   UNL     1     -13.148   3.678 -19.434  0.00  0.00    -0.252 OA
ENDROOT
BRANCH   1  15
ATOM     12  C   UNL     1     -10.463   1.455 -15.465  0.00  0.00    +0.020 A 
ATOM     13  C   UNL     1     -10.430   0.428 -16.402  0.00  0.00    +0.043 A 
ATOM     14  C   UNL     1     -11.286   0.446 -17.507  0.00  0.00    +0.043 A 
ATOM     15  C   UNL     1     -12.191   1.501 -17.685  0.00  0.00    +0.036 A 
ATOM     16  C   UNL     1     -12.219   2.528 -16.739  0.00  0.00    +0.023 A 
ATOM     17 CL   UNL     1      -9.326  -0.877 -16.202  0.00  0.00    -0.083 Cl
ATOM     18  C   UNL     1     -11.359   2.507 -15.635  0.00  0.00    +0.003 A 
ENDBRANCH   1  15
TORSDOF 1
ENDMDL
MODEL 8
REMARK VINA RESULT:      -5.8      5.293      8.114
REMARK  Name = min_compound914.pdb
REMARK  1 active torsions:
REMARK  status: ('A' for Active; 'I' for Inactive)
REMARK    1  A    between atoms: _7  and  _15
REMARK                            x       y       z     vdW  Elec       q    Type
REMARK                         _______ _______ _______ _____ _____    ______ ____
ROOT
ATOM      1  N   UNL     1     -16.491   1.938  -5.830  0.00  0.00    -0.269 N 
ATOM      2  H   UNL     1     -17.373   2.220  -5.433  0.00  0.00    +0.156 HD
ATOM      3  C   UNL     1     -16.350   2.098  -7.206  0.00  0.00    +0.310 C 
ATOM      4  N   UNL     1     -17.504   2.635  -7.745  0.00  0.00    -0.248 N 
ATOM      5  H   UNL     1     -18.294   2.855  -7.168  0.00  0.00    +0.158 HD
ATOM      6  C   UNL     1     -17.642   2.898  -9.080  0.00  0.00    +0.165 A 
ATOM      7  S   UNL     1     -19.165   3.560  -9.493  0.00  0.00    -0.060 S 
ATOM      8  C   UNL     1     -18.671   3.622 -11.135  0.00  0.00    +0.068 A 
ATOM      9  C   UNL     1     -17.386   3.135 -11.246  0.00  0.00    +0.120 A 
ATOM     10  N   UNL     1     -16.802   2.722 -10.065  0.00  0.00    -0.233 NA
ATOM     11  O   UNL     1     -15.347   1.804  -7.839  0.00  0.00    -0.252 OA
ENDROOT
BRANCH   1  15
ATOM     12  C   UNL     1     -13.723   0.238  -3.130  0.00  0.00    +0.020 A 
ATOM     13  C   UNL     1     -14.654  -0.544  -3.807  0.00  0.00    +0.043 A 
ATOM     14  C   UNL     1     -15.561   0.039  -4.696  0.00  0.00    +0.043 A 
ATOM     15  C   UNL     1     -15.544   1.423  -4.919  0.00  0.00    +0.036 A 
ATOM     16  C   UNL     1     -14.606   2.202  -4.235  0.00  0.00    +0.023 A 
ATOM     17 CL   UNL     1     -14.692  -2.245  -3.547  0.00  0.00    -0.083 Cl
ATOM     18  C   UNL     1     -13.700   1.613  -3.346  0.00  0.00    +0.003 A 
ENDBRANCH   1  15
TORSDOF 1
ENDMDL
MODEL 9
REMARK VINA RESULT:      -5.6     14.279     16.486
REMARK  Name = min_compound914.pdb
REMARK  1 active torsions:
REMARK  status: ('A' for Active; 'I' for Inactive)
REMARK    1  A    between atoms: _7  and  _15
REMARK                            x       y       z     vdW  Elec       q    Type
REMARK                         _______ _______ _______ _____ _____    ______ ____
ROOT
ATOM      1  N   UNL     1     -12.199   2.684 -17.774  0.00  0.00    -0.269 N 
ATOM      2  H   UNL     1     -12.110   3.487 -17.172  0.00  0.00    +0.156 HD
ATOM      3  C   UNL     1     -13.007   2.836 -18.898  0.00  0.00    +0.310 C 
ATOM      4  N   UNL     1     -13.530   4.114 -18.941  0.00  0.00    -0.248 N 
ATOM      5  H   UNL     1     -13.316   4.788 -18.229  0.00  0.00    +0.158 HD
ATOM      6  C   UNL     1     -14.361   4.538 -19.941  0.00  0.00    +0.165 A 
ATOM      7  S   UNL     1     -14.871   6.162 -19.764  0.00  0.00    -0.060 S 
ATOM      8  C   UNL     1     -15.780   6.014 -21.212  0.00  0.00    +0.068 A 
ATOM      9  C   UNL     1     -15.627   4.741 -21.721  0.00  0.00    +0.120 A 
ATOM     10  N   UNL     1     -14.813   3.901 -20.987  0.00  0.00    -0.233 NA
ATOM     11  O   UNL     1     -13.218   1.959 -19.723  0.00  0.00    -0.252 OA
ENDROOT
BRANCH   1  15
ATOM     12  C   UNL     1     -10.216  -0.822 -16.502  0.00  0.00    +0.020 A 
ATOM     13  C   UNL     1     -11.579  -0.641 -16.294  0.00  0.00    +0.043 A 
ATOM     14  C   UNL     1     -12.215   0.527 -16.724  0.00  0.00    +0.043 A 
ATOM     15  C   UNL     1     -11.486   1.534 -17.371  0.00  0.00    +0.036 A 
ATOM     16  C   UNL     1     -10.117   1.346 -17.575  0.00  0.00    +0.023 A 
ATOM     17 CL   UNL     1     -12.493  -1.866 -15.502  0.00  0.00    -0.083 Cl
ATOM     18  C   UNL     1      -9.484   0.174 -17.143  0.00  0.00    +0.003 A 
ENDBRANCH   1  15
TORSDOF 1
ENDMDL
