MODEL 1
REMARK VINA RESULT:      -5.3      0.000      0.000
REMARK  Name = min_compound962.pdb
REMARK  7 active torsions:
REMARK  status: ('A' for Active; 'I' for Inactive)
REMARK    1  A    between atoms: _2  and  _16
REMARK    2  A    between atoms: _4  and  _18
REMARK    3  A    between atoms: _5  and  _15
REMARK    4  A    between atoms: _7  and  _19
REMARK    5  A    between atoms: _10  and  _12
REMARK    6  A    between atoms: _14  and  _18
REMARK    7  A    between atoms: _16  and  _17
REMARK                            x       y       z     vdW  Elec       q    Type
REMARK                         _______ _______ _______ _____ _____    ______ ____
ROOT
ATOM      1  C   UNL     1     -14.423   5.062 -19.319  0.00  0.00    +0.141 A 
ATOM      2  C   UNL     1     -13.759   3.813 -19.433  0.00  0.00    +0.028 A 
ATOM      3  C   UNL     1     -12.698   3.935 -18.582  0.00  0.00    +0.143 A 
ATOM      4  N   UNL     1     -11.591   3.321 -18.050  0.00  0.00    -0.302 N 
ATOM      5  C   UNL     1     -11.045   4.218 -17.113  0.00  0.00    +0.110 A 
ATOM      6  C   UNL     1     -11.755   5.363 -17.108  0.00  0.00    +0.132 A 
ATOM      7  N   UNL     1     -12.782   5.195 -18.018  0.00  0.00    -0.222 N 
ATOM      8  N   UNL     1     -13.838   5.905 -18.452  0.00  0.00    -0.173 NA
ENDROOT
BRANCH   4   9
ATOM      9  C1* UNL     1     -11.364   1.883 -18.106  0.00  0.00    +0.252 C 
ATOM     10  C2* UNL     1     -12.449   1.028 -17.426  0.00  0.00    +0.195 C 
ATOM     11  C3* UNL     1     -11.706  -0.287 -17.261  0.00  0.00    +0.178 C 
ATOM     12  C4* UNL     1     -10.276   0.175 -16.947  0.00  0.00    +0.177 C 
ATOM     13  O4* UNL     1     -10.126   1.504 -17.474  0.00  0.00    -0.346 OA
BRANCH  10  14
ATOM     14  O2* UNL     1     -12.846   1.495 -16.124  0.00  0.00    -0.385 OA
ATOM     15  H2* UNL     1     -13.221   2.385 -16.281  0.00  0.00    +0.210 HD
ENDBRANCH  10  14
BRANCH  11  16
ATOM     16  O3* UNL     1     -12.340  -1.104 -16.282  0.00  0.00    -0.386 OA
ATOM     17  H3* UNL     1     -11.638  -1.406 -15.663  0.00  0.00    +0.210 HD
ENDBRANCH  11  16
BRANCH  12  18
ATOM     18  C5* UNL     1      -9.890   0.162 -15.471  0.00  0.00    +0.190 C 
BRANCH  18  19
ATOM     19  O5* UNL     1     -10.111   1.451 -14.897  0.00  0.00    -0.392 OA
ATOM     20  H5* UNL     1      -9.227   1.825 -14.722  0.00  0.00    +0.210 HD
ENDBRANCH  18  19
ENDBRANCH  12  18
ENDBRANCH   4   9
BRANCH   2  21
ATOM     21  C   UNL     1     -14.116   2.715 -20.259  0.00  0.00    +0.118 C 
BRANCH  21  22
ATOM     22  N   UNL     1     -14.492   1.601 -21.115  0.00  0.00    -0.326 NA
ATOM     23  H   UNL     1     -14.873   1.958 -21.991  0.00  0.00    +0.119 HD
ATOM     24  H   UNL     1     -13.670   1.030 -21.310  0.00  0.00    +0.119 HD
ENDBRANCH  21  22
ENDBRANCH   2  21
TORSDOF 7
ENDMDL
MODEL 2
REMARK VINA RESULT:      -5.3      3.238      5.055
REMARK  Name = min_compound962.pdb
REMARK  7 active torsions:
REMARK  status: ('A' for Active; 'I' for Inactive)
REMARK    1  A    between atoms: _2  and  _16
REMARK    2  A    between atoms: _4  and  _18
REMARK    3  A    between atoms: _5  and  _15
REMARK    4  A    between atoms: _7  and  _19
REMARK    5  A    between atoms: _10  and  _12
REMARK    6  A    between atoms: _14  and  _18
REMARK    7  A    between atoms: _16  and  _17
REMARK                            x       y       z     vdW  Elec       q    Type
REMARK                         _______ _______ _______ _____ _____    ______ ____
ROOT
ATOM      1  C   UNL     1     -10.253   0.292 -17.452  0.00  0.00    +0.141 A 
ATOM      2  C   UNL     1     -11.452   0.502 -16.724  0.00  0.00    +0.028 A 
ATOM      3  C   UNL     1     -11.461   1.849 -16.502  0.00  0.00    +0.143 A 
ATOM      4  N   UNL     1     -12.139   2.906 -15.943  0.00  0.00    -0.302 N 
ATOM      5  C   UNL     1     -11.407   4.065 -16.259  0.00  0.00    +0.110 A 
ATOM      6  C   UNL     1     -10.292   3.732 -16.938  0.00  0.00    +0.132 A 
ATOM      7  N   UNL     1     -10.318   2.358 -17.091  0.00  0.00    -0.222 N 
ATOM      8  N   UNL     1      -9.562   1.420 -17.686  0.00  0.00    -0.173 NA
ENDROOT
BRANCH   4   9
ATOM      9  C1* UNL     1     -13.543   2.845 -15.557  0.00  0.00    +0.252 C 
ATOM     10  C2* UNL     1     -14.526   2.601 -16.715  0.00  0.00    +0.195 C 
ATOM     11  C3* UNL     1     -15.829   3.048 -16.075  0.00  0.00    +0.178 C 
ATOM     12  C4* UNL     1     -15.385   4.233 -15.208  0.00  0.00    +0.177 C 
ATOM     13  O4* UNL     1     -13.984   4.066 -14.930  0.00  0.00    -0.346 OA
BRANCH  10  14
ATOM     14  O2* UNL     1     -14.286   3.412 -17.880  0.00  0.00    -0.385 OA
ATOM     15  H2* UNL     1     -14.358   2.794 -18.635  0.00  0.00    +0.210 HD
ENDBRANCH  10  14
BRANCH  11  16
ATOM     16  O3* UNL     1     -16.810   3.321 -17.071  0.00  0.00    -0.386 OA
ATOM     17  H3* UNL     1     -16.382   3.172 -17.943  0.00  0.00    +0.210 HD
ENDBRANCH  11  16
BRANCH  12  18
ATOM     18  C5* UNL     1     -15.626   5.616 -15.808  0.00  0.00    +0.190 C 
BRANCH  18  19
ATOM     19  O5* UNL     1     -14.460   6.055 -16.506  0.00  0.00    -0.392 OA
ATOM     20  H5* UNL     1     -14.690   6.038 -17.454  0.00  0.00    +0.210 HD
ENDBRANCH  18  19
ENDBRANCH  12  18
ENDBRANCH   4   9
BRANCH   2  21
ATOM     21  C   UNL     1     -12.399  -0.474 -16.314  0.00  0.00    +0.118 C 
BRANCH  21  22
ATOM     22  N   UNL     1     -13.369  -1.479 -15.910  0.00  0.00    -0.326 NA
ATOM     23  H   UNL     1     -12.881  -2.329 -15.629  0.00  0.00    +0.119 HD
ATOM     24  H   UNL     1     -13.917  -1.127 -15.126  0.00  0.00    +0.119 HD
ENDBRANCH  21  22
ENDBRANCH   2  21
TORSDOF 7
ENDMDL
MODEL 3
REMARK VINA RESULT:      -5.1      2.350      2.873
REMARK  Name = min_compound962.pdb
REMARK  7 active torsions:
REMARK  status: ('A' for Active; 'I' for Inactive)
REMARK    1  A    between atoms: _2  and  _16
REMARK    2  A    between atoms: _4  and  _18
REMARK    3  A    between atoms: _5  and  _15
REMARK    4  A    between atoms: _7  and  _19
REMARK    5  A    between atoms: _10  and  _12
REMARK    6  A    between atoms: _14  and  _18
REMARK    7  A    between atoms: _16  and  _17
REMARK                            x       y       z     vdW  Elec       q    Type
REMARK                         _______ _______ _______ _____ _____    ______ ____
ROOT
ATOM      1  C   UNL     1     -15.464   6.058 -16.305  0.00  0.00    +0.141 A 
ATOM      2  C   UNL     1     -15.034   4.706 -16.324  0.00  0.00    +0.028 A 
ATOM      3  C   UNL     1     -13.775   4.777 -16.846  0.00  0.00    +0.143 A 
ATOM      4  N   UNL     1     -12.656   4.070 -17.216  0.00  0.00    -0.302 N 
ATOM      5  C   UNL     1     -11.705   5.018 -17.639  0.00  0.00    +0.110 A 
ATOM      6  C   UNL     1     -12.236   6.255 -17.585  0.00  0.00    +0.132 A 
ATOM      7  N   UNL     1     -13.520   6.113 -17.094  0.00  0.00    -0.222 N 
ATOM      8  N   UNL     1     -14.543   6.920 -16.765  0.00  0.00    -0.173 NA
ENDROOT
BRANCH   4   9
ATOM      9  C1* UNL     1     -12.386   2.706 -16.782  0.00  0.00    +0.252 C 
ATOM     10  C2* UNL     1     -11.476   2.586 -15.546  0.00  0.00    +0.195 C 
ATOM     11  C3* UNL     1     -11.044   1.134 -15.657  0.00  0.00    +0.178 C 
ATOM     12  C4* UNL     1     -10.913   0.940 -17.174  0.00  0.00    +0.177 C 
ATOM     13  O4* UNL     1     -11.741   1.928 -17.810  0.00  0.00    -0.346 OA
BRANCH  10  14
ATOM     14  O2* UNL     1     -10.302   3.417 -15.588  0.00  0.00    -0.385 OA
ATOM     15  H2* UNL     1      -9.553   2.799 -15.469  0.00  0.00    +0.210 HD
ENDBRANCH  10  14
BRANCH  11  16
ATOM     16  O3* UNL     1      -9.873   0.897 -14.882  0.00  0.00    -0.386 OA
ATOM     17  H3* UNL     1      -9.108   0.939 -15.498  0.00  0.00    +0.210 HD
ENDBRANCH  11  16
BRANCH  12  18
ATOM     18  C5* UNL     1      -9.494   1.027 -17.729  0.00  0.00    +0.190 C 
BRANCH  18  19
ATOM     19  O5* UNL     1      -8.773  -0.166 -17.412  0.00  0.00    -0.392 OA
ATOM     20  H5* UNL     1      -9.354  -0.908 -17.663  0.00  0.00    +0.210 HD
ENDBRANCH  18  19
ENDBRANCH  12  18
ENDBRANCH   4   9
BRANCH   2  21
ATOM     21  C   UNL     1     -15.764   3.559 -15.913  0.00  0.00    +0.118 C 
BRANCH  21  22
ATOM     22  N   UNL     1     -16.510   2.378 -15.508  0.00  0.00    -0.326 NA
ATOM     23  H   UNL     1     -16.586   2.356 -14.491  0.00  0.00    +0.119 HD
ATOM     24  H   UNL     1     -17.443   2.409 -15.917  0.00  0.00    +0.119 HD
ENDBRANCH  21  22
ENDBRANCH   2  21
TORSDOF 7
ENDMDL
MODEL 4
REMARK VINA RESULT:      -5.0      1.543      2.158
REMARK  Name = min_compound962.pdb
REMARK  7 active torsions:
REMARK  status: ('A' for Active; 'I' for Inactive)
REMARK    1  A    between atoms: _2  and  _16
REMARK    2  A    between atoms: _4  and  _18
REMARK    3  A    between atoms: _5  and  _15
REMARK    4  A    between atoms: _7  and  _19
REMARK    5  A    between atoms: _10  and  _12
REMARK    6  A    between atoms: _14  and  _18
REMARK    7  A    between atoms: _16  and  _17
REMARK                            x       y       z     vdW  Elec       q    Type
REMARK                         _______ _______ _______ _____ _____    ______ ____
ROOT
ATOM      1  C   UNL     1     -13.917   5.518 -21.031  0.00  0.00    +0.141 A 
ATOM      2  C   UNL     1     -13.552   4.390 -20.251  0.00  0.00    +0.028 A 
ATOM      3  C   UNL     1     -12.836   4.931 -19.222  0.00  0.00    +0.143 A 
ATOM      4  N   UNL     1     -12.136   4.677 -18.066  0.00  0.00    -0.302 N 
ATOM      5  C   UNL     1     -11.745   5.926 -17.552  0.00  0.00    +0.110 A 
ATOM      6  C   UNL     1     -12.139   6.909 -18.385  0.00  0.00    +0.132 A 
ATOM      7  N   UNL     1     -12.816   6.298 -19.424  0.00  0.00    -0.222 N 
ATOM      8  N   UNL     1     -13.478   6.684 -20.528  0.00  0.00    -0.173 NA
ENDROOT
BRANCH   4   9
ATOM      9  C1* UNL     1     -12.235   3.426 -17.325  0.00  0.00    +0.252 C 
ATOM     10  C2* UNL     1     -11.474   3.402 -15.988  0.00  0.00    +0.195 C 
ATOM     11  C3* UNL     1     -11.397   1.906 -15.737  0.00  0.00    +0.178 C 
ATOM     12  C4* UNL     1     -11.205   1.341 -17.150  0.00  0.00    +0.177 C 
ATOM     13  O4* UNL     1     -11.722   2.309 -18.078  0.00  0.00    -0.346 OA
BRANCH  10  14
ATOM     14  O2* UNL     1     -10.135   3.925 -16.055  0.00  0.00    -0.385 OA
ATOM     15  H2* UNL     1     -10.194   4.819 -15.663  0.00  0.00    +0.210 HD
ENDBRANCH  10  14
BRANCH  11  16
ATOM     16  O3* UNL     1     -10.377   1.608 -14.788  0.00  0.00    -0.386 OA
ATOM     17  H3* UNL     1      -9.722   2.339 -14.832  0.00  0.00    +0.210 HD
ENDBRANCH  11  16
BRANCH  12  18
ATOM     18  C5* UNL     1      -9.769   0.985 -17.528  0.00  0.00    +0.190 C 
BRANCH  18  19
ATOM     19  O5* UNL     1      -9.355  -0.186 -16.821  0.00  0.00    -0.392 OA
ATOM     20  H5* UNL     1      -8.497   0.035 -16.412  0.00  0.00    +0.210 HD
ENDBRANCH  18  19
ENDBRANCH  12  18
ENDBRANCH   4   9
BRANCH   2  21
ATOM     21  C   UNL     1     -13.853   3.027 -20.507  0.00  0.00    +0.118 C 
BRANCH  21  22
ATOM     22  N   UNL     1     -14.157   1.632 -20.786  0.00  0.00    -0.326 NA
ATOM     23  H   UNL     1     -15.039   1.572 -21.295  0.00  0.00    +0.119 HD
ATOM     24  H   UNL     1     -13.410   1.228 -21.351  0.00  0.00    +0.119 HD
ENDBRANCH  21  22
ENDBRANCH   2  21
TORSDOF 7
ENDMDL
MODEL 5
REMARK VINA RESULT:      -4.9     11.984     13.071
REMARK  Name = min_compound962.pdb
REMARK  7 active torsions:
REMARK  status: ('A' for Active; 'I' for Inactive)
REMARK    1  A    between atoms: _2  and  _16
REMARK    2  A    between atoms: _4  and  _18
REMARK    3  A    between atoms: _5  and  _15
REMARK    4  A    between atoms: _7  and  _19
REMARK    5  A    between atoms: _10  and  _12
REMARK    6  A    between atoms: _14  and  _18
REMARK    7  A    between atoms: _16  and  _17
REMARK                            x       y       z     vdW  Elec       q    Type
REMARK                         _______ _______ _______ _____ _____    ______ ____
ROOT
ATOM      1  C   UNL     1     -17.471   4.827  -7.388  0.00  0.00    +0.141 A 
ATOM      2  C   UNL     1     -17.412   4.011  -6.229  0.00  0.00    +0.028 A 
ATOM      3  C   UNL     1     -17.168   2.763  -6.726  0.00  0.00    +0.143 A 
ATOM      4  N   UNL     1     -16.961   1.439  -6.424  0.00  0.00    -0.302 N 
ATOM      5  C   UNL     1     -16.698   0.786  -7.642  0.00  0.00    +0.110 A 
ATOM      6  C   UNL     1     -16.794   1.662  -8.662  0.00  0.00    +0.132 A 
ATOM      7  N   UNL     1     -17.087   2.891  -8.101  0.00  0.00    -0.222 N 
ATOM      8  N   UNL     1     -17.265   4.151  -8.531  0.00  0.00    -0.173 NA
ENDROOT
BRANCH   4   9
ATOM      9  C1* UNL     1     -16.609   0.964  -5.092  0.00  0.00    +0.252 C 
ATOM     10  C2* UNL     1     -15.252   1.460  -4.563  0.00  0.00    +0.195 C 
ATOM     11  C3* UNL     1     -15.006   0.461  -3.446  0.00  0.00    +0.178 C 
ATOM     12  C4* UNL     1     -15.580  -0.838  -4.027  0.00  0.00    +0.177 C 
ATOM     13  O4* UNL     1     -16.542  -0.475  -5.031  0.00  0.00    -0.346 OA
BRANCH  10  14
ATOM     14  O2* UNL     1     -14.172   1.363  -5.509  0.00  0.00    -0.385 OA
ATOM     15  H2* UNL     1     -13.433   1.855  -5.098  0.00  0.00    +0.210 HD
ENDBRANCH  10  14
BRANCH  11  16
ATOM     16  O3* UNL     1     -13.628   0.442  -3.082  0.00  0.00    -0.386 OA
ATOM     17  H3* UNL     1     -13.336  -0.496  -3.119  0.00  0.00    +0.210 HD
ENDBRANCH  11  16
BRANCH  12  18
ATOM     18  C5* UNL     1     -14.556  -1.801  -4.623  0.00  0.00    +0.190 C 
BRANCH  18  19
ATOM     19  O5* UNL     1     -14.634  -1.774  -6.049  0.00  0.00    -0.392 OA
ATOM     20  H5* UNL     1     -15.106  -2.588  -6.310  0.00  0.00    +0.210 HD
ENDBRANCH  18  19
ENDBRANCH  12  18
ENDBRANCH   4   9
BRANCH   2  21
ATOM     21  C   UNL     1     -17.590   4.412  -4.878  0.00  0.00    +0.118 C 
BRANCH  21  22
ATOM     22  N   UNL     1     -17.767   4.807  -3.490  0.00  0.00    -0.326 NA
ATOM     23  H   UNL     1     -16.854   4.903  -3.044  0.00  0.00    +0.119 HD
ATOM     24  H   UNL     1     -18.261   5.698  -3.450  0.00  0.00    +0.119 HD
ENDBRANCH  21  22
ENDBRANCH   2  21
TORSDOF 7
ENDMDL
MODEL 6
REMARK VINA RESULT:      -4.8      2.005      3.171
REMARK  Name = min_compound962.pdb
REMARK  7 active torsions:
REMARK  status: ('A' for Active; 'I' for Inactive)
REMARK    1  A    between atoms: _2  and  _16
REMARK    2  A    between atoms: _4  and  _18
REMARK    3  A    between atoms: _5  and  _15
REMARK    4  A    between atoms: _7  and  _19
REMARK    5  A    between atoms: _10  and  _12
REMARK    6  A    between atoms: _14  and  _18
REMARK    7  A    between atoms: _16  and  _17
REMARK                            x       y       z     vdW  Elec       q    Type
REMARK                         _______ _______ _______ _____ _____    ______ ____
ROOT
ATOM      1  C   UNL     1     -14.823   5.903 -17.542  0.00  0.00    +0.141 A 
ATOM      2  C   UNL     1     -14.486   4.751 -16.785  0.00  0.00    +0.028 A 
ATOM      3  C   UNL     1     -14.006   3.881 -17.721  0.00  0.00    +0.143 A 
ATOM      4  N   UNL     1     -13.479   2.633 -17.950  0.00  0.00    -0.302 N 
ATOM      5  C   UNL     1     -13.176   2.571 -19.322  0.00  0.00    +0.110 A 
ATOM      6  C   UNL     1     -13.551   3.714 -19.927  0.00  0.00    +0.132 A 
ATOM      7  N   UNL     1     -14.069   4.532 -18.940  0.00  0.00    -0.222 N 
ATOM      8  N   UNL     1     -14.563   5.779 -18.854  0.00  0.00    -0.173 NA
ENDROOT
BRANCH   4   9
ATOM      9  C1* UNL     1     -12.922   1.791 -16.899  0.00  0.00    +0.252 C 
ATOM     10  C2* UNL     1     -11.698   2.381 -16.175  0.00  0.00    +0.195 C 
ATOM     11  C3* UNL     1     -11.125   1.131 -15.530  0.00  0.00    +0.178 C 
ATOM     12  C4* UNL     1     -11.394   0.056 -16.591  0.00  0.00    +0.177 C 
ATOM     13  O4* UNL     1     -12.488   0.512 -17.403  0.00  0.00    -0.346 OA
BRANCH  10  14
ATOM     14  O2* UNL     1     -10.702   2.943 -17.050  0.00  0.00    -0.385 OA
ATOM     15  H2* UNL     1     -11.193   3.566 -17.622  0.00  0.00    +0.210 HD
ENDBRANCH  10  14
BRANCH  11  16
ATOM     16  O3* UNL     1      -9.765   1.335 -15.160  0.00  0.00    -0.386 OA
ATOM     17  H3* UNL     1      -9.736   1.363 -14.178  0.00  0.00    +0.210 HD
ENDBRANCH  11  16
BRANCH  12  18
ATOM     18  C5* UNL     1     -10.207  -0.300 -17.484  0.00  0.00    +0.190 C 
BRANCH  18  19
ATOM     19  O5* UNL     1      -9.137  -0.814 -16.689  0.00  0.00    -0.392 OA
ATOM     20  H5* UNL     1      -9.528  -1.043 -15.825  0.00  0.00    +0.210 HD
ENDBRANCH  18  19
ENDBRANCH  12  18
ENDBRANCH   4   9
BRANCH   2  21
ATOM     21  C   UNL     1     -14.639   4.559 -15.387  0.00  0.00    +0.118 C 
BRANCH  21  22
ATOM     22  N   UNL     1     -14.792   4.345 -13.956  0.00  0.00    -0.326 NA
ATOM     23  H   UNL     1     -13.915   4.565 -13.484  0.00  0.00    +0.119 HD
ATOM     24  H   UNL     1     -15.531   4.949 -13.599  0.00  0.00    +0.119 HD
ENDBRANCH  21  22
ENDBRANCH   2  21
TORSDOF 7
ENDMDL
MODEL 7
REMARK VINA RESULT:      -4.8      7.011      9.040
REMARK  Name = min_compound962.pdb
REMARK  7 active torsions:
REMARK  status: ('A' for Active; 'I' for Inactive)
REMARK    1  A    between atoms: _2  and  _16
REMARK    2  A    between atoms: _4  and  _18
REMARK    3  A    between atoms: _5  and  _15
REMARK    4  A    between atoms: _7  and  _19
REMARK    5  A    between atoms: _10  and  _12
REMARK    6  A    between atoms: _14  and  _18
REMARK    7  A    between atoms: _16  and  _17
REMARK                            x       y       z     vdW  Elec       q    Type
REMARK                         _______ _______ _______ _____ _____    ______ ____
ROOT
ATOM      1  C   UNL     1     -15.152   4.523 -11.176  0.00  0.00    +0.141 A 
ATOM      2  C   UNL     1     -15.377   4.830 -12.543  0.00  0.00    +0.028 A 
ATOM      3  C   UNL     1     -16.419   5.711 -12.508  0.00  0.00    +0.143 A 
ATOM      4  N   UNL     1     -17.268   6.498 -13.248  0.00  0.00    -0.302 N 
ATOM      5  C   UNL     1     -18.074   7.193 -12.327  0.00  0.00    +0.110 A 
ATOM      6  C   UNL     1     -17.773   6.808 -11.072  0.00  0.00    +0.132 A 
ATOM      7  N   UNL     1     -16.747   5.887 -11.177  0.00  0.00    -0.222 N 
ATOM      8  N   UNL     1     -15.978   5.171 -10.338  0.00  0.00    -0.173 NA
ENDROOT
BRANCH   4   9
ATOM      9  C1* UNL     1     -17.017   6.870 -14.633  0.00  0.00    +0.252 C 
ATOM     10  C2* UNL     1     -15.718   7.661 -14.868  0.00  0.00    +0.195 C 
ATOM     11  C3* UNL     1     -15.997   8.257 -16.237  0.00  0.00    +0.178 C 
ATOM     12  C4* UNL     1     -17.500   8.557 -16.171  0.00  0.00    +0.177 C 
ATOM     13  O4* UNL     1     -18.070   7.694 -15.173  0.00  0.00    -0.346 OA
BRANCH  10  14
ATOM     14  O2* UNL     1     -15.499   8.737 -13.937  0.00  0.00    -0.385 OA
ATOM     15  H2* UNL     1     -15.566   9.552 -14.475  0.00  0.00    +0.210 HD
ENDBRANCH  10  14
BRANCH  11  16
ATOM     16  O3* UNL     1     -15.137   9.365 -16.488  0.00  0.00    -0.386 OA
ATOM     17  H3* UNL     1     -14.248   9.120 -16.149  0.00  0.00    +0.210 HD
ENDBRANCH  11  16
BRANCH  12  18
ATOM     18  C5* UNL     1     -17.869  10.006 -15.866  0.00  0.00    +0.190 C 
BRANCH  18  19
ATOM     19  O5* UNL     1     -18.071  10.173 -14.461  0.00  0.00    -0.392 OA
ATOM     20  H5* UNL     1     -17.558  10.962 -14.206  0.00  0.00    +0.210 HD
ENDBRANCH  18  19
ENDBRANCH  12  18
ENDBRANCH   4   9
BRANCH   2  21
ATOM     21  C   UNL     1     -14.684   4.315 -13.671  0.00  0.00    +0.118 C 
BRANCH  21  22
ATOM     22  N   UNL     1     -13.982   3.772 -14.823  0.00  0.00    -0.326 NA
ATOM     23  H   UNL     1     -13.437   4.510 -15.269  0.00  0.00    +0.119 HD
ATOM     24  H   UNL     1     -13.357   3.025 -14.519  0.00  0.00    +0.119 HD
ENDBRANCH  21  22
ENDBRANCH   2  21
TORSDOF 7
ENDMDL
MODEL 8
REMARK VINA RESULT:      -4.7     13.542     15.005
REMARK  Name = min_compound962.pdb
REMARK  7 active torsions:
REMARK  status: ('A' for Active; 'I' for Inactive)
REMARK    1  A    between atoms: _2  and  _16
REMARK    2  A    between atoms: _4  and  _18
REMARK    3  A    between atoms: _5  and  _15
REMARK    4  A    between atoms: _7  and  _19
REMARK    5  A    between atoms: _10  and  _12
REMARK    6  A    between atoms: _14  and  _18
REMARK    7  A    between atoms: _16  and  _17
REMARK                            x       y       z     vdW  Elec       q    Type
REMARK                         _______ _______ _______ _____ _____    ______ ____
ROOT
ATOM      1  C   UNL     1     -14.955   1.416  -6.927  0.00  0.00    +0.141 A 
ATOM      2  C   UNL     1     -14.988   1.221  -5.522  0.00  0.00    +0.028 A 
ATOM      3  C   UNL     1     -16.032   0.359  -5.343  0.00  0.00    +0.143 A 
ATOM      4  N   UNL     1     -16.775  -0.353  -4.432  0.00  0.00    -0.302 N 
ATOM      5  C   UNL     1     -17.708  -1.101  -5.174  0.00  0.00    +0.110 A 
ATOM      6  C   UNL     1     -17.583  -0.820  -6.485  0.00  0.00    +0.132 A 
ATOM      7  N   UNL     1     -16.545   0.087  -6.597  0.00  0.00    -0.222 N 
ATOM      8  N   UNL     1     -15.896   0.722  -7.588  0.00  0.00    -0.173 NA
ENDROOT
BRANCH   4   9
ATOM      9  C1* UNL     1     -16.335  -0.622  -3.070  0.00  0.00    +0.252 C 
ATOM     10  C2* UNL     1     -14.997  -1.375  -2.956  0.00  0.00    +0.195 C 
ATOM     11  C3* UNL     1     -15.079  -1.876  -1.525  0.00  0.00    +0.178 C 
ATOM     12  C4* UNL     1     -16.570  -2.202  -1.371  0.00  0.00    +0.177 C 
ATOM     13  O4* UNL     1     -17.287  -1.421  -2.340  0.00  0.00    -0.346 OA
BRANCH  10  14
ATOM     14  O2* UNL     1     -14.877  -2.511  -3.832  0.00  0.00    -0.385 OA
ATOM     15  H2* UNL     1     -14.000  -2.411  -4.254  0.00  0.00    +0.210 HD
ENDBRANCH  10  14
BRANCH  11  16
ATOM     16  O3* UNL     1     -14.167  -2.951  -1.315  0.00  0.00    -0.386 OA
ATOM     17  H3* UNL     1     -14.512  -3.721  -1.819  0.00  0.00    +0.210 HD
ENDBRANCH  11  16
BRANCH  12  18
ATOM     18  C5* UNL     1     -16.941  -3.675  -1.524  0.00  0.00    +0.190 C 
BRANCH  18  19
ATOM     19  O5* UNL     1     -17.406  -3.925  -2.852  0.00  0.00    -0.392 OA
ATOM     20  H5* UNL     1     -16.722  -3.570  -3.449  0.00  0.00    +0.210 HD
ENDBRANCH  18  19
ENDBRANCH  12  18
ENDBRANCH   4   9
BRANCH   2  21
ATOM     21  C   UNL     1     -14.140   1.807  -4.546  0.00  0.00    +0.118 C 
BRANCH  21  22
ATOM     22  N   UNL     1     -13.286   2.414  -3.538  0.00  0.00    -0.326 NA
ATOM     23  H   UNL     1     -12.314   2.369  -3.844  0.00  0.00    +0.119 HD
ATOM     24  H   UNL     1     -13.555   3.389  -3.406  0.00  0.00    +0.119 HD
ENDBRANCH  21  22
ENDBRANCH   2  21
TORSDOF 7
ENDMDL
MODEL 9
REMARK VINA RESULT:      -4.6     13.132     14.686
REMARK  Name = min_compound962.pdb
REMARK  7 active torsions:
REMARK  status: ('A' for Active; 'I' for Inactive)
REMARK    1  A    between atoms: _2  and  _16
REMARK    2  A    between atoms: _4  and  _18
REMARK    3  A    between atoms: _5  and  _15
REMARK    4  A    between atoms: _7  and  _19
REMARK    5  A    between atoms: _10  and  _12
REMARK    6  A    between atoms: _14  and  _18
REMARK    7  A    between atoms: _16  and  _17
REMARK                            x       y       z     vdW  Elec       q    Type
REMARK                         _______ _______ _______ _____ _____    ______ ____
ROOT
ATOM      1  C   UNL     1     -15.191  -2.812  -1.860  0.00  0.00    +0.141 A 
ATOM      2  C   UNL     1     -16.142  -2.244  -2.747  0.00  0.00    +0.028 A 
ATOM      3  C   UNL     1     -15.557  -1.073  -3.136  0.00  0.00    +0.143 A 
ATOM      4  N   UNL     1     -15.681   0.059  -3.906  0.00  0.00    -0.302 N 
ATOM      5  C   UNL     1     -14.480   0.778  -3.757  0.00  0.00    +0.110 A 
ATOM      6  C   UNL     1     -13.671   0.143  -2.887  0.00  0.00    +0.132 A 
ATOM      7  N   UNL     1     -14.334  -1.005  -2.496  0.00  0.00    -0.222 N 
ATOM      8  N   UNL     1     -14.084  -2.066  -1.709  0.00  0.00    -0.173 NA
ENDROOT
BRANCH   4   9
ATOM      9  C1* UNL     1     -16.641   0.190  -4.994  0.00  0.00    +0.252 C 
ATOM     10  C2* UNL     1     -16.562  -0.912  -6.066  0.00  0.00    +0.195 C 
ATOM     11  C3* UNL     1     -17.313  -0.247  -7.206  0.00  0.00    +0.178 C 
ATOM     12  C4* UNL     1     -16.892   1.223  -7.070  0.00  0.00    +0.177 C 
ATOM     13  O4* UNL     1     -16.482   1.432  -5.709  0.00  0.00    -0.346 OA
BRANCH  10  14
ATOM     14  O2* UNL     1     -15.228  -1.215  -6.512  0.00  0.00    -0.385 OA
ATOM     15  H2* UNL     1     -15.294  -1.262  -7.487  0.00  0.00    +0.210 HD
ENDBRANCH  10  14
BRANCH  11  16
ATOM     16  O3* UNL     1     -17.013  -0.883  -8.445  0.00  0.00    -0.386 OA
ATOM     17  H3* UNL     1     -17.310  -0.275  -9.158  0.00  0.00    +0.210 HD
ENDBRANCH  11  16
BRANCH  12  18
ATOM     18  C5* UNL     1     -15.783   1.680  -8.015  0.00  0.00    +0.190 C 
BRANCH  18  19
ATOM     19  O5* UNL     1     -14.506   1.415  -7.432  0.00  0.00    -0.392 OA
ATOM     20  H5* UNL     1     -14.359   2.118  -6.772  0.00  0.00    +0.210 HD
ENDBRANCH  18  19
ENDBRANCH  12  18
ENDBRANCH   4   9
BRANCH   2  21
ATOM     21  C   UNL     1     -17.407  -2.773  -3.115  0.00  0.00    +0.118 C 
BRANCH  21  22
ATOM     22  N   UNL     1     -18.695  -3.323  -3.507  0.00  0.00    -0.326 NA
ATOM     23  H   UNL     1     -19.438  -2.685  -3.222  0.00  0.00    +0.119 HD
ATOM     24  H   UNL     1     -18.719  -3.444  -4.519  0.00  0.00    +0.119 HD
ENDBRANCH  21  22
ENDBRANCH   2  21
TORSDOF 7
ENDMDL
