MODEL 1
REMARK VINA RESULT:      -7.4      0.000      0.000
REMARK  Name = min_compound969.pdb
REMARK  5 active torsions:
REMARK  status: ('A' for Active; 'I' for Inactive)
REMARK    1  A    between atoms: _2  and  _5
REMARK    2  A    between atoms: _10  and  _16
REMARK    3  A    between atoms: _12  and  _17
REMARK    4  A    between atoms: _14  and  _17
REMARK    5  A    between atoms: _15  and  _19
REMARK                            x       y       z     vdW  Elec       q    Type
REMARK                         _______ _______ _______ _____ _____    ______ ____
ROOT
ATOM      1  N   UNL     1     -14.520  -3.172  -2.981  0.00  0.00    -0.284 N 
ATOM      2  H   UNL     1     -14.116  -3.562  -3.826  0.00  0.00    +0.155 HD
ATOM      3  C   UNL     1     -14.162  -3.730  -1.774  0.00  0.00    +0.229 C 
ATOM      4  O   UNL     1     -14.311  -3.034  -0.752  0.00  0.00    -0.275 OA
ENDROOT
BRANCH   1   7
ATOM      5  C   UNL     1     -14.915   0.677  -3.448  0.00  0.00    +0.057 A 
ATOM      6  C   UNL     1     -14.340  -0.634  -3.275  0.00  0.00    +0.037 A 
ATOM      7  C   UNL     1     -15.099  -1.834  -3.112  0.00  0.00    +0.052 A 
ATOM      8  C   UNL     1     -16.491  -1.686  -3.085  0.00  0.00    +0.062 A 
ATOM      9 CL   UNL     1     -17.527  -3.059  -2.890  0.00  0.00    -0.082 Cl
ATOM     10  C   UNL     1     -17.087  -0.423  -3.250  0.00  0.00    +0.022 A 
ATOM     11  C   UNL     1     -16.313   0.740  -3.426  0.00  0.00    +0.014 A 
BRANCH   5  13
ATOM     12  F   UNL     1     -12.929   1.135  -2.841  0.00  0.00    -0.166 F 
ATOM     13  C   UNL     1     -13.977   1.847  -3.504  0.00  0.00    +0.417 C 
ATOM     14  F   UNL     1     -13.707   1.636  -4.891  0.00  0.00    -0.166 F 
ATOM     15  F   UNL     1     -13.040   3.016  -3.561  0.00  0.00    -0.166 F 
ENDBRANCH   5  13
ENDBRANCH   1   7
BRANCH   3  16
ATOM     16  C   UNL     1     -13.430  -5.032  -1.632  0.00  0.00    +0.224 C 
BRANCH  16  17
ATOM     17  C   UNL     1     -12.447  -4.653  -0.452  0.00  0.00    +0.282 C 
ATOM     18  N   UNL     1     -11.567  -3.604  -0.634  0.00  0.00    -0.288 N 
ATOM     19  H   UNL     1     -12.055  -2.775  -0.977  0.00  0.00    +0.301 HD
ATOM     20  H   UNL     1     -11.126  -3.397   0.259  0.00  0.00    +0.301 HD
ATOM     21  N   UNL     1     -12.482  -5.386   0.623  0.00  0.00    -0.136 N 
ATOM     22  H   UNL     1     -13.084  -6.153   0.762  0.00  0.00    +0.348 HD
BRANCH  21  23
ATOM     23  O   UNL     1     -11.536  -4.927   1.556  0.00  0.00    -0.210 OA
ATOM     24  H   UNL     1     -12.097  -4.687   2.317  0.00  0.00    +0.271 HD
ENDBRANCH  21  23
ENDBRANCH  16  17
ENDBRANCH   3  16
TORSDOF 5
ENDMDL
MODEL 2
REMARK VINA RESULT:      -6.9      6.416      8.601
REMARK  Name = min_compound969.pdb
REMARK  5 active torsions:
REMARK  status: ('A' for Active; 'I' for Inactive)
REMARK    1  A    between atoms: _2  and  _5
REMARK    2  A    between atoms: _10  and  _16
REMARK    3  A    between atoms: _12  and  _17
REMARK    4  A    between atoms: _14  and  _17
REMARK    5  A    between atoms: _15  and  _19
REMARK                            x       y       z     vdW  Elec       q    Type
REMARK                         _______ _______ _______ _____ _____    ______ ____
ROOT
ATOM      1  N   UNL     1     -17.113   1.613  -7.766  0.00  0.00    -0.284 N 
ATOM      2  H   UNL     1     -18.050   1.635  -7.378  0.00  0.00    +0.155 HD
ATOM      3  C   UNL     1     -16.826   2.452  -8.819  0.00  0.00    +0.229 C 
ATOM      4  O   UNL     1     -15.629   2.729  -9.024  0.00  0.00    -0.275 OA
ENDROOT
BRANCH   1   7
ATOM      5  C   UNL     1     -14.388   1.088  -5.029  0.00  0.00    +0.057 A 
ATOM      6  C   UNL     1     -15.366   1.699  -5.895  0.00  0.00    +0.037 A 
ATOM      7  C   UNL     1     -16.089   1.005  -6.915  0.00  0.00    +0.052 A 
ATOM      8  C   UNL     1     -15.775  -0.349  -7.082  0.00  0.00    +0.062 A 
ATOM      9 CL   UNL     1     -16.574  -1.303  -8.285  0.00  0.00    -0.082 Cl
ATOM     10  C   UNL     1     -14.826  -0.978  -6.257  0.00  0.00    +0.022 A 
ATOM     11  C   UNL     1     -14.142  -0.273  -5.249  0.00  0.00    +0.014 A 
BRANCH   5  13
ATOM     12  F   UNL     1     -14.845   2.590  -3.595  0.00  0.00    -0.166 F 
ATOM     13  C   UNL     1     -13.646   1.978  -4.078  0.00  0.00    +0.417 C 
ATOM     14  F   UNL     1     -13.418   0.906  -3.162  0.00  0.00    -0.166 F 
ATOM     15  F   UNL     1     -12.903   2.869  -3.126  0.00  0.00    -0.166 F 
ENDBRANCH   5  13
ENDBRANCH   1   7
BRANCH   3  16
ATOM     16  C   UNL     1     -17.861   3.201  -9.605  0.00  0.00    +0.224 C 
BRANCH  16  17
ATOM     17  C   UNL     1     -17.169   4.623  -9.662  0.00  0.00    +0.282 C 
ATOM     18  N   UNL     1     -16.727   5.095 -10.882  0.00  0.00    -0.288 N 
ATOM     19  H   UNL     1     -17.461   5.023 -11.588  0.00  0.00    +0.301 HD
ATOM     20  H   UNL     1     -16.454   6.069 -10.769  0.00  0.00    +0.301 HD
ATOM     21  N   UNL     1     -17.006   5.261  -8.539  0.00  0.00    -0.136 N 
ATOM     22  H   UNL     1     -17.292   4.931  -7.657  0.00  0.00    +0.348 HD
BRANCH  21  23
ATOM     23  O   UNL     1     -16.361   6.490  -8.768  0.00  0.00    -0.210 OA
ATOM     24  H   UNL     1     -17.033   6.984  -9.274  0.00  0.00    +0.271 HD
ENDBRANCH  21  23
ENDBRANCH  16  17
ENDBRANCH   3  16
TORSDOF 5
ENDMDL
MODEL 3
REMARK VINA RESULT:      -6.8      3.404      4.156
REMARK  Name = min_compound969.pdb
REMARK  5 active torsions:
REMARK  status: ('A' for Active; 'I' for Inactive)
REMARK    1  A    between atoms: _2  and  _5
REMARK    2  A    between atoms: _10  and  _16
REMARK    3  A    between atoms: _12  and  _17
REMARK    4  A    between atoms: _14  and  _17
REMARK    5  A    between atoms: _15  and  _19
REMARK                            x       y       z     vdW  Elec       q    Type
REMARK                         _______ _______ _______ _____ _____    ______ ____
ROOT
ATOM      1  N   UNL     1     -15.162  -0.821  -2.966  0.00  0.00    -0.284 N 
ATOM      2  H   UNL     1     -15.823  -0.328  -2.374  0.00  0.00    +0.155 HD
ATOM      3  C   UNL     1     -14.794  -2.097  -2.606  0.00  0.00    +0.229 C 
ATOM      4  O   UNL     1     -14.335  -2.837  -3.497  0.00  0.00    -0.275 OA
ENDROOT
BRANCH   1   7
ATOM      5  C   UNL     1     -15.572  -0.202  -6.792  0.00  0.00    +0.057 A 
ATOM      6  C   UNL     1     -15.702  -0.761  -5.469  0.00  0.00    +0.037 A 
ATOM      7  C   UNL     1     -15.000  -0.285  -4.319  0.00  0.00    +0.052 A 
ATOM      8  C   UNL     1     -14.107   0.772  -4.533  0.00  0.00    +0.062 A 
ATOM      9 CL   UNL     1     -13.191   1.440  -3.224  0.00  0.00    -0.082 Cl
ATOM     10  C   UNL     1     -13.954   1.341  -5.809  0.00  0.00    +0.022 A 
ATOM     11  C   UNL     1     -14.672   0.862  -6.921  0.00  0.00    +0.014 A 
BRANCH   5  13
ATOM     12  F   UNL     1     -17.485  -1.070  -7.128  0.00  0.00    -0.166 F 
ATOM     13  C   UNL     1     -16.303  -0.884  -7.911  0.00  0.00    +0.417 C 
ATOM     14  F   UNL     1     -16.534   0.352  -8.589  0.00  0.00    -0.166 F 
ATOM     15  F   UNL     1     -17.033  -1.565  -9.030  0.00  0.00    -0.166 F 
ENDBRANCH   5  13
ENDBRANCH   1   7
BRANCH   3  16
ATOM     16  C   UNL     1     -15.090  -2.714  -1.271  0.00  0.00    +0.224 C 
BRANCH  16  17
ATOM     17  C   UNL     1     -13.757  -3.540  -1.061  0.00  0.00    +0.282 C 
ATOM     18  N   UNL     1     -13.842  -4.911  -0.925  0.00  0.00    -0.288 N 
ATOM     19  H   UNL     1     -14.404  -5.317  -1.675  0.00  0.00    +0.301 HD
ATOM     20  H   UNL     1     -12.900  -5.295  -0.955  0.00  0.00    +0.301 HD
ATOM     21  N   UNL     1     -12.641  -2.875  -0.977  0.00  0.00    -0.136 N 
ATOM     22  H   UNL     1     -12.562  -1.896  -1.047  0.00  0.00    +0.348 HD
BRANCH  21  23
ATOM     23  O   UNL     1     -11.564  -3.756  -0.772  0.00  0.00    -0.210 OA
ATOM     24  H   UNL     1     -11.203  -3.445   0.079  0.00  0.00    +0.271 HD
ENDBRANCH  21  23
ENDBRANCH  16  17
ENDBRANCH   3  16
TORSDOF 5
ENDMDL
MODEL 4
REMARK VINA RESULT:      -6.5     14.644     15.923
REMARK  Name = min_compound969.pdb
REMARK  5 active torsions:
REMARK  status: ('A' for Active; 'I' for Inactive)
REMARK    1  A    between atoms: _2  and  _5
REMARK    2  A    between atoms: _10  and  _16
REMARK    3  A    between atoms: _12  and  _17
REMARK    4  A    between atoms: _14  and  _17
REMARK    5  A    between atoms: _15  and  _19
REMARK                            x       y       z     vdW  Elec       q    Type
REMARK                         _______ _______ _______ _____ _____    ______ ____
ROOT
ATOM      1  N   UNL     1     -14.138   4.285 -16.598  0.00  0.00    -0.284 N 
ATOM      2  H   UNL     1     -14.706   4.303 -17.439  0.00  0.00    +0.155 HD
ATOM      3  C   UNL     1     -14.745   4.585 -15.399  0.00  0.00    +0.229 C 
ATOM      4  O   UNL     1     -14.193   4.179 -14.358  0.00  0.00    -0.275 OA
ENDROOT
BRANCH   1   7
ATOM      5  C   UNL     1     -11.481   1.435 -16.657  0.00  0.00    +0.057 A 
ATOM      6  C   UNL     1     -12.723   2.153 -16.510  0.00  0.00    +0.037 A 
ATOM      7  C   UNL     1     -12.871   3.561 -16.704  0.00  0.00    +0.052 A 
ATOM      8  C   UNL     1     -11.704   4.267 -17.021  0.00  0.00    +0.062 A 
ATOM      9 CL   UNL     1     -11.743   5.978 -17.278  0.00  0.00    -0.082 Cl
ATOM     10  C   UNL     1     -10.475   3.601 -17.172  0.00  0.00    +0.022 A 
ATOM     11  C   UNL     1     -10.363   2.209 -16.991  0.00  0.00    +0.014 A 
BRANCH   5  13
ATOM     12  F   UNL     1     -11.158  -0.413 -17.658  0.00  0.00    -0.166 F 
ATOM     13  C   UNL     1     -11.476  -0.026 -16.319  0.00  0.00    +0.417 C 
ATOM     14  F   UNL     1     -10.202   0.068 -15.680  0.00  0.00    -0.166 F 
ATOM     15  F   UNL     1     -11.471  -1.488 -15.980  0.00  0.00    -0.166 F 
ENDBRANCH   5  13
ENDBRANCH   1   7
BRANCH   3  16
ATOM     16  C   UNL     1     -16.112   5.190 -15.274  0.00  0.00    +0.224 C 
BRANCH  16  17
ATOM     17  C   UNL     1     -15.779   6.394 -14.304  0.00  0.00    +0.282 C 
ATOM     18  N   UNL     1     -15.865   6.190 -12.941  0.00  0.00    -0.288 N 
ATOM     19  H   UNL     1     -15.350   5.352 -12.666  0.00  0.00    +0.301 HD
ATOM     20  H   UNL     1     -15.475   7.003 -12.470  0.00  0.00    +0.301 HD
ATOM     21  N   UNL     1     -15.486   7.542 -14.844  0.00  0.00    -0.136 N 
ATOM     22  H   UNL     1     -15.443   7.714 -15.812  0.00  0.00    +0.348 HD
BRANCH  21  23
ATOM     23  O   UNL     1     -15.239   8.500 -13.845  0.00  0.00    -0.210 OA
ATOM     24  H   UNL     1     -15.723   9.278 -14.182  0.00  0.00    +0.271 HD
ENDBRANCH  21  23
ENDBRANCH  16  17
ENDBRANCH   3  16
TORSDOF 5
ENDMDL
MODEL 5
REMARK VINA RESULT:      -6.5     15.875     17.582
REMARK  Name = min_compound969.pdb
REMARK  5 active torsions:
REMARK  status: ('A' for Active; 'I' for Inactive)
REMARK    1  A    between atoms: _2  and  _5
REMARK    2  A    between atoms: _10  and  _16
REMARK    3  A    between atoms: _12  and  _17
REMARK    4  A    between atoms: _14  and  _17
REMARK    5  A    between atoms: _15  and  _19
REMARK                            x       y       z     vdW  Elec       q    Type
REMARK                         _______ _______ _______ _____ _____    ______ ____
ROOT
ATOM      1  N   UNL     1     -12.949   3.725 -19.034  0.00  0.00    -0.284 N 
ATOM      2  H   UNL     1     -12.478   3.832 -19.927  0.00  0.00    +0.155 HD
ATOM      3  C   UNL     1     -14.307   3.499 -19.039  0.00  0.00    +0.229 C 
ATOM      4  O   UNL     1     -14.806   2.974 -18.025  0.00  0.00    -0.275 OA
ENDROOT
BRANCH   1   7
ATOM      5  C   UNL     1     -10.739   1.821 -16.450  0.00  0.00    +0.057 A 
ATOM      6  C   UNL     1     -11.627   2.112 -17.548  0.00  0.00    +0.037 A 
ATOM      7  C   UNL     1     -12.083   3.421 -17.893  0.00  0.00    +0.052 A 
ATOM      8  C   UNL     1     -11.650   4.465 -17.066  0.00  0.00    +0.062 A 
ATOM      9 CL   UNL     1     -12.133   6.099 -17.372  0.00  0.00    -0.082 Cl
ATOM     10  C   UNL     1     -10.785   4.219 -15.986  0.00  0.00    +0.022 A 
ATOM     11  C   UNL     1     -10.338   2.920 -15.680  0.00  0.00    +0.014 A 
BRANCH   5  13
ATOM     12  F   UNL     1      -9.241   0.396 -16.944  0.00  0.00    -0.166 F 
ATOM     13  C   UNL     1     -10.437   0.381 -16.160  0.00  0.00    +0.417 C 
ATOM     14  F   UNL     1      -9.982   0.682 -14.840  0.00  0.00    -0.166 F 
ATOM     15  F   UNL     1     -10.134  -1.060 -15.870  0.00  0.00    -0.166 F 
ENDBRANCH   5  13
ENDBRANCH   1   7
BRANCH   3  16
ATOM     16  C   UNL     1     -15.183   3.661 -20.245  0.00  0.00    +0.224 C 
BRANCH  16  17
ATOM     17  C   UNL     1     -14.403   2.734 -21.263  0.00  0.00    +0.282 C 
ATOM     18  N   UNL     1     -14.221   3.179 -22.557  0.00  0.00    -0.288 N 
ATOM     19  H   UNL     1     -13.839   4.125 -22.566  0.00  0.00    +0.301 HD
ATOM     20  H   UNL     1     -13.578   2.544 -23.026  0.00  0.00    +0.301 HD
ATOM     21  N   UNL     1     -14.012   1.567 -20.840  0.00  0.00    -0.136 N 
ATOM     22  H   UNL     1     -14.153   1.222 -19.928  0.00  0.00    +0.348 HD
BRANCH  21  23
ATOM     23  O   UNL     1     -13.357   0.870 -21.871  0.00  0.00    -0.210 OA
ATOM     24  H   UNL     1     -12.903   1.588 -22.349  0.00  0.00    +0.271 HD
ENDBRANCH  21  23
ENDBRANCH  16  17
ENDBRANCH   3  16
TORSDOF 5
ENDMDL
MODEL 6
REMARK VINA RESULT:      -6.4      1.820      2.429
REMARK  Name = min_compound969.pdb
REMARK  5 active torsions:
REMARK  status: ('A' for Active; 'I' for Inactive)
REMARK    1  A    between atoms: _2  and  _5
REMARK    2  A    between atoms: _10  and  _16
REMARK    3  A    between atoms: _12  and  _17
REMARK    4  A    between atoms: _14  and  _17
REMARK    5  A    between atoms: _15  and  _19
REMARK                            x       y       z     vdW  Elec       q    Type
REMARK                         _______ _______ _______ _____ _____    ______ ____
ROOT
ATOM      1  N   UNL     1     -14.806  -3.053  -3.253  0.00  0.00    -0.284 N 
ATOM      2  H   UNL     1     -14.418  -3.423  -4.115  0.00  0.00    +0.155 HD
ATOM      3  C   UNL     1     -14.506  -3.701  -2.076  0.00  0.00    +0.229 C 
ATOM      4  O   UNL     1     -14.619  -3.053  -1.018  0.00  0.00    -0.275 OA
ENDROOT
BRANCH   1   7
ATOM      5  C   UNL     1     -14.923   0.833  -3.522  0.00  0.00    +0.057 A 
ATOM      6  C   UNL     1     -14.445  -0.523  -3.417  0.00  0.00    +0.037 A 
ATOM      7  C   UNL     1     -15.288  -1.672  -3.315  0.00  0.00    +0.052 A 
ATOM      8  C   UNL     1     -16.666  -1.426  -3.279  0.00  0.00    +0.062 A 
ATOM      9 CL   UNL     1     -17.797  -2.730  -3.153  0.00  0.00    -0.082 Cl
ATOM     10  C   UNL     1     -17.169  -0.117  -3.377  0.00  0.00    +0.022 A 
ATOM     11  C   UNL     1     -16.314   0.995  -3.494  0.00  0.00    +0.014 A 
BRANCH   5  13
ATOM     12  F   UNL     1     -12.908   1.114  -2.905  0.00  0.00    -0.166 F 
ATOM     13  C   UNL     1     -13.905   1.934  -3.519  0.00  0.00    +0.417 C 
ATOM     14  F   UNL     1     -13.655   1.785  -4.917  0.00  0.00    -0.166 F 
ATOM     15  F   UNL     1     -12.887   3.036  -3.516  0.00  0.00    -0.166 F 
ENDBRANCH   5  13
ENDBRANCH   1   7
BRANCH   3  16
ATOM     16  C   UNL     1     -13.869  -5.057  -2.000  0.00  0.00    +0.224 C 
BRANCH  16  17
ATOM     17  C   UNL     1     -15.159  -5.961  -2.142  0.00  0.00    +0.282 C 
ATOM     18  N   UNL     1     -16.307  -5.588  -1.471  0.00  0.00    -0.288 N 
ATOM     19  H   UNL     1     -16.532  -4.608  -1.651  0.00  0.00    +0.301 HD
ATOM     20  H   UNL     1     -17.071  -6.180  -1.789  0.00  0.00    +0.301 HD
ATOM     21  N   UNL     1     -15.061  -7.048  -2.852  0.00  0.00    -0.136 N 
ATOM     22  H   UNL     1     -14.245  -7.344  -3.318  0.00  0.00    +0.348 HD
BRANCH  21  23
ATOM     23  O   UNL     1     -16.285  -7.739  -2.856  0.00  0.00    -0.210 OA
ATOM     24  H   UNL     1     -16.917  -7.040  -2.602  0.00  0.00    +0.271 HD
ENDBRANCH  21  23
ENDBRANCH  16  17
ENDBRANCH   3  16
TORSDOF 5
ENDMDL
MODEL 7
REMARK VINA RESULT:      -6.2      5.954      7.975
REMARK  Name = min_compound969.pdb
REMARK  5 active torsions:
REMARK  status: ('A' for Active; 'I' for Inactive)
REMARK    1  A    between atoms: _2  and  _5
REMARK    2  A    between atoms: _10  and  _16
REMARK    3  A    between atoms: _12  and  _17
REMARK    4  A    between atoms: _14  and  _17
REMARK    5  A    between atoms: _15  and  _19
REMARK                            x       y       z     vdW  Elec       q    Type
REMARK                         _______ _______ _______ _____ _____    ______ ____
ROOT
ATOM      1  N   UNL     1     -16.089   2.192  -7.395  0.00  0.00    -0.284 N 
ATOM      2  H   UNL     1     -15.721   2.326  -8.331  0.00  0.00    +0.155 HD
ATOM      3  C   UNL     1     -17.315   2.742  -7.096  0.00  0.00    +0.229 C 
ATOM      4  O   UNL     1     -17.944   2.258  -6.135  0.00  0.00    -0.275 OA
ENDROOT
BRANCH   1   7
ATOM      5  C   UNL     1     -14.127   0.228  -4.660  0.00  0.00    +0.057 A 
ATOM      6  C   UNL     1     -14.691   1.298  -5.444  0.00  0.00    +0.037 A 
ATOM      7  C   UNL     1     -15.479   1.110  -6.621  0.00  0.00    +0.052 A 
ATOM      8  C   UNL     1     -15.664  -0.215  -7.035  0.00  0.00    +0.062 A 
ATOM      9 CL   UNL     1     -16.594  -0.583  -8.448  0.00  0.00    -0.082 Cl
ATOM     10  C   UNL     1     -15.128  -1.284  -6.296  0.00  0.00    +0.022 A 
ATOM     11  C   UNL     1     -14.370  -1.068  -5.130  0.00  0.00    +0.014 A 
BRANCH   5  13
ATOM     12  F   UNL     1     -13.773   1.925  -3.427  0.00  0.00    -0.166 F 
ATOM     13  C   UNL     1     -13.240   0.600  -3.509  0.00  0.00    +0.417 C 
ATOM     14  F   UNL     1     -14.033  -0.144  -2.583  0.00  0.00    -0.166 F 
ATOM     15  F   UNL     1     -12.353   0.972  -2.358  0.00  0.00    -0.166 F 
ENDBRANCH   5  13
ENDBRANCH   1   7
BRANCH   3  16
ATOM     16  C   UNL     1     -18.023   3.742  -7.961  0.00  0.00    +0.224 C 
BRANCH  16  17
ATOM     17  C   UNL     1     -17.395   5.077  -7.389  0.00  0.00    +0.282 C 
ATOM     18  N   UNL     1     -16.798   5.958  -8.268  0.00  0.00    -0.288 N 
ATOM     19  H   UNL     1     -17.415   6.159  -9.057  0.00  0.00    +0.301 HD
ATOM     20  H   UNL     1     -16.590   6.819  -7.767  0.00  0.00    +0.301 HD
ATOM     21  N   UNL     1     -17.429   5.256  -6.100  0.00  0.00    -0.136 N 
ATOM     22  H   UNL     1     -17.828   4.629  -5.454  0.00  0.00    +0.348 HD
BRANCH  21  23
ATOM     23  O   UNL     1     -16.814   6.475  -5.762  0.00  0.00    -0.210 OA
ATOM     24  H   UNL     1     -16.051   6.180  -5.230  0.00  0.00    +0.271 HD
ENDBRANCH  21  23
ENDBRANCH  16  17
ENDBRANCH   3  16
TORSDOF 5
ENDMDL
MODEL 8
REMARK VINA RESULT:      -6.2      6.631      8.097
REMARK  Name = min_compound969.pdb
REMARK  5 active torsions:
REMARK  status: ('A' for Active; 'I' for Inactive)
REMARK    1  A    between atoms: _2  and  _5
REMARK    2  A    between atoms: _10  and  _16
REMARK    3  A    between atoms: _12  and  _17
REMARK    4  A    between atoms: _14  and  _17
REMARK    5  A    between atoms: _15  and  _19
REMARK                            x       y       z     vdW  Elec       q    Type
REMARK                         _______ _______ _______ _____ _____    ______ ____
ROOT
ATOM      1  N   UNL     1     -17.306   1.563  -8.517  0.00  0.00    -0.284 N 
ATOM      2  H   UNL     1     -18.078   1.152  -9.032  0.00  0.00    +0.155 HD
ATOM      3  C   UNL     1     -16.396   0.716  -7.927  0.00  0.00    +0.229 C 
ATOM      4  O   UNL     1     -15.269   1.176  -7.662  0.00  0.00    -0.275 OA
ENDROOT
BRANCH   1   7
ATOM      5  C   UNL     1     -16.257   4.848 -10.332  0.00  0.00    +0.057 A 
ATOM      6  C   UNL     1     -16.487   3.456 -10.035  0.00  0.00    +0.037 A 
ATOM      7  C   UNL     1     -17.030   2.972  -8.806  0.00  0.00    +0.052 A 
ATOM      8  C   UNL     1     -17.311   3.937  -7.831  0.00  0.00    +0.062 A 
ATOM      9 CL   UNL     1     -17.969   3.483  -6.296  0.00  0.00    -0.082 Cl
ATOM     10  C   UNL     1     -17.099   5.303  -8.085  0.00  0.00    +0.022 A 
ATOM     11  C   UNL     1     -16.578   5.753  -9.313  0.00  0.00    +0.014 A 
BRANCH   5  13
ATOM     12  F   UNL     1     -14.304   4.748 -11.168  0.00  0.00    -0.166 F 
ATOM     13  C   UNL     1     -15.586   5.182 -11.632  0.00  0.00    +0.417 C 
ATOM     14  F   UNL     1     -16.125   4.026 -12.273  0.00  0.00    -0.166 F 
ATOM     15  F   UNL     1     -14.915   5.516 -12.931  0.00  0.00    -0.166 F 
ENDBRANCH   5  13
ENDBRANCH   1   7
BRANCH   3  16
ATOM     16  C   UNL     1     -16.603  -0.761  -7.762  0.00  0.00    +0.224 C 
BRANCH  16  17
ATOM     17  C   UNL     1     -15.932  -0.964  -6.344  0.00  0.00    +0.282 C 
ATOM     18  N   UNL     1     -16.454  -0.286  -5.261  0.00  0.00    -0.288 N 
ATOM     19  H   UNL     1     -17.465  -0.416  -5.203  0.00  0.00    +0.301 HD
ATOM     20  H   UNL     1     -16.013  -0.643  -4.416  0.00  0.00    +0.301 HD
ATOM     21  N   UNL     1     -14.881  -1.729  -6.277  0.00  0.00    -0.136 N 
ATOM     22  H   UNL     1     -14.479  -2.202  -7.042  0.00  0.00    +0.348 HD
BRANCH  21  23
ATOM     23  O   UNL     1     -14.402  -1.784  -4.957  0.00  0.00    -0.210 OA
ATOM     24  H   UNL     1     -15.227  -1.753  -4.437  0.00  0.00    +0.271 HD
ENDBRANCH  21  23
ENDBRANCH  16  17
ENDBRANCH   3  16
TORSDOF 5
ENDMDL
MODEL 9
REMARK VINA RESULT:      -6.0      6.319      8.511
REMARK  Name = min_compound969.pdb
REMARK  5 active torsions:
REMARK  status: ('A' for Active; 'I' for Inactive)
REMARK    1  A    between atoms: _2  and  _5
REMARK    2  A    between atoms: _10  and  _16
REMARK    3  A    between atoms: _12  and  _17
REMARK    4  A    between atoms: _14  and  _17
REMARK    5  A    between atoms: _15  and  _19
REMARK                            x       y       z     vdW  Elec       q    Type
REMARK                         _______ _______ _______ _____ _____    ______ ____
ROOT
ATOM      1  N   UNL     1     -17.867   1.376  -6.392  0.00  0.00    -0.284 N 
ATOM      2  H   UNL     1     -18.552   0.899  -5.814  0.00  0.00    +0.155 HD
ATOM      3  C   UNL     1     -18.256   2.522  -7.047  0.00  0.00    +0.229 C 
ATOM      4  O   UNL     1     -17.361   3.312  -7.404  0.00  0.00    -0.275 OA
ENDROOT
BRANCH   1   7
ATOM      5  C   UNL     1     -14.257   1.320  -4.925  0.00  0.00    +0.057 A 
ATOM      6  C   UNL     1     -15.621   1.695  -5.204  0.00  0.00    +0.037 A 
ATOM      7  C   UNL     1     -16.468   1.024  -6.138  0.00  0.00    +0.052 A 
ATOM      8  C   UNL     1     -15.893  -0.041  -6.841  0.00  0.00    +0.062 A 
ATOM      9 CL   UNL     1     -16.809  -0.935  -8.005  0.00  0.00    -0.082 Cl
ATOM     10  C   UNL     1     -14.565  -0.434  -6.596  0.00  0.00    +0.022 A 
ATOM     11  C   UNL     1     -13.759   0.235  -5.656  0.00  0.00    +0.014 A 
BRANCH   5  13
ATOM     12  F   UNL     1     -14.640   2.867  -3.516  0.00  0.00    -0.166 F 
ATOM     13  C   UNL     1     -13.472   2.191  -3.990  0.00  0.00    +0.417 C 
ATOM     14  F   UNL     1     -13.292   1.126  -3.056  0.00  0.00    -0.166 F 
ATOM     15  F   UNL     1     -12.686   3.063  -3.055  0.00  0.00    -0.166 F 
ENDBRANCH   5  13
ENDBRANCH   1   7
BRANCH   3  16
ATOM     16  C   UNL     1     -19.680   2.973  -7.182  0.00  0.00    +0.224 C 
BRANCH  16  17
ATOM     17  C   UNL     1     -19.632   3.561  -8.650  0.00  0.00    +0.282 C 
ATOM     18  N   UNL     1     -19.895   4.904  -8.834  0.00  0.00    -0.288 N 
ATOM     19  H   UNL     1     -19.336   5.475  -8.198  0.00  0.00    +0.301 HD
ATOM     20  H   UNL     1     -19.673   5.145  -9.797  0.00  0.00    +0.301 HD
ATOM     21  N   UNL     1     -19.393   2.732  -9.625  0.00  0.00    -0.136 N 
ATOM     22  H   UNL     1     -19.227   1.768  -9.517  0.00  0.00    +0.348 HD
BRANCH  21  23
ATOM     23  O   UNL     1     -19.406   3.413 -10.855  0.00  0.00    -0.210 OA
ATOM     24  H   UNL     1     -19.439   2.679 -11.497  0.00  0.00    +0.271 HD
ENDBRANCH  21  23
ENDBRANCH  16  17
ENDBRANCH   3  16
TORSDOF 5
ENDMDL
