MODEL 1
REMARK VINA RESULT:      -6.3      0.000      0.000
REMARK  Name = min_compound971.pdb
REMARK  2 active torsions:
REMARK  status: ('A' for Active; 'I' for Inactive)
REMARK    1  A    between atoms: _7  and  _17
REMARK    2  A    between atoms: _9  and  _20
REMARK                            x       y       z     vdW  Elec       q    Type
REMARK                         _______ _______ _______ _____ _____    ______ ____
ROOT
ATOM      1  C   UNL     1     -15.179   2.485 -16.166  0.00  0.00    +0.137 C 
ATOM      2  N   UNL     1     -13.756   2.688 -16.304  0.00  0.00    -0.223 N 
ATOM      3  C   UNL     1     -13.502   4.007 -16.746  0.00  0.00    +0.317 C 
ATOM      4  O   UNL     1     -12.439   4.423 -17.180  0.00  0.00    -0.252 OA
ATOM      5  N   UNL     1     -14.709   4.724 -16.613  0.00  0.00    -0.231 N 
ATOM      6  C   UNL     1     -14.890   6.068 -16.864  0.00  0.00    +0.191 A 
ATOM      7  N   UNL     1     -16.029   6.699 -16.652  0.00  0.00    -0.126 NA
ATOM      8  N   UNL     1     -15.958   8.041 -16.964  0.00  0.00    -0.148 NA
ATOM      9  C   UNL     1     -14.765   8.370 -17.406  0.00  0.00    +0.183 A 
ATOM     10  S   UNL     1     -13.651   7.074 -17.474  0.00  0.00    -0.038 S 
ATOM     11  C   UNL     1     -12.850   1.647 -16.358  0.00  0.00    +0.211 A 
ATOM     12  N   UNL     1     -11.464   1.710 -16.326  0.00  0.00    -0.257 N 
ATOM     13  C   UNL     1     -10.646   2.817 -15.881  0.00  0.00    +0.158 C 
ATOM     14  C   UNL     1     -11.017   0.427 -16.550  0.00  0.00    +0.369 A 
ATOM     15  C   UNL     1     -12.124  -0.376 -16.547  0.00  0.00    +0.219 A 
ATOM     16  N   UNL     1     -13.249   0.386 -16.395  0.00  0.00    -0.215 NA
ATOM     17  C   UNL     1     -15.739   3.886 -16.048  0.00  0.00    +0.137 C 
ENDROOT
BRANCH  14  18
ATOM     18  N   UNL     1      -9.658   0.043 -16.701  0.00  0.00    +0.100 N 
ATOM     19  O   UNL     1      -9.049   0.467 -17.690  0.00  0.00    +0.043 OA
ATOM     20  O   UNL     1      -9.197  -0.703 -15.830  0.00  0.00    -0.575 OA
ENDBRANCH  14  18
TORSDOF 1
ENDMDL
MODEL 2
REMARK VINA RESULT:      -6.2      2.807      7.117
REMARK  Name = min_compound971.pdb
REMARK  2 active torsions:
REMARK  status: ('A' for Active; 'I' for Inactive)
REMARK    1  A    between atoms: _7  and  _17
REMARK    2  A    between atoms: _9  and  _20
REMARK                            x       y       z     vdW  Elec       q    Type
REMARK                         _______ _______ _______ _____ _____    ______ ____
ROOT
ATOM      1  C   UNL     1     -10.841   4.968 -16.437  0.00  0.00    +0.137 C 
ATOM      2  N   UNL     1     -12.191   4.622 -16.812  0.00  0.00    -0.223 N 
ATOM      3  C   UNL     1     -12.306   3.218 -16.947  0.00  0.00    +0.317 C 
ATOM      4  O   UNL     1     -13.235   2.624 -17.472  0.00  0.00    -0.252 OA
ATOM      5  N   UNL     1     -11.140   2.657 -16.387  0.00  0.00    -0.231 N 
ATOM      6  C   UNL     1     -10.872   1.311 -16.244  0.00  0.00    +0.191 A 
ATOM      7  N   UNL     1      -9.793   0.846 -15.645  0.00  0.00    -0.126 NA
ATOM      8  N   UNL     1      -9.756  -0.533 -15.613  0.00  0.00    -0.148 NA
ATOM      9  C   UNL     1     -10.813  -1.056 -16.195  0.00  0.00    +0.183 A 
ATOM     10  S   UNL     1     -11.918   0.090 -16.821  0.00  0.00    -0.038 S 
ATOM     11  C   UNL     1     -13.090   5.541 -17.317  0.00  0.00    +0.211 A 
ATOM     12  N   UNL     1     -14.447   5.375 -17.560  0.00  0.00    -0.257 N 
ATOM     13  C   UNL     1     -15.313   4.346 -17.028  0.00  0.00    +0.158 C 
ATOM     14  C   UNL     1     -14.866   6.524 -18.191  0.00  0.00    +0.369 A 
ATOM     15  C   UNL     1     -13.810   7.391 -18.163  0.00  0.00    +0.219 A 
ATOM     16  N   UNL     1     -12.727   6.784 -17.590  0.00  0.00    -0.215 NA
ATOM     17  C   UNL     1     -10.284   3.688 -15.853  0.00  0.00    +0.137 C 
ENDROOT
BRANCH  14  18
ATOM     18  N   UNL     1     -16.167   6.747 -18.715  0.00  0.00    +0.100 N 
ATOM     19  O   UNL     1     -16.429   6.269 -19.825  0.00  0.00    +0.043 OA
ATOM     20  O   UNL     1     -16.933   7.421 -18.017  0.00  0.00    -0.575 OA
ENDBRANCH  14  18
TORSDOF 1
ENDMDL
MODEL 3
REMARK VINA RESULT:      -6.0      2.922      7.042
REMARK  Name = min_compound971.pdb
REMARK  2 active torsions:
REMARK  status: ('A' for Active; 'I' for Inactive)
REMARK    1  A    between atoms: _7  and  _17
REMARK    2  A    between atoms: _9  and  _20
REMARK                            x       y       z     vdW  Elec       q    Type
REMARK                         _______ _______ _______ _____ _____    ______ ____
ROOT
ATOM      1  C   UNL     1     -11.712   4.941 -17.342  0.00  0.00    +0.137 C 
ATOM      2  N   UNL     1     -12.866   4.356 -16.700  0.00  0.00    -0.223 N 
ATOM      3  C   UNL     1     -12.752   2.947 -16.700  0.00  0.00    +0.317 C 
ATOM      4  O   UNL     1     -13.649   2.156 -16.451  0.00  0.00    -0.252 OA
ATOM      5  N   UNL     1     -11.424   2.644 -17.068  0.00  0.00    -0.231 N 
ATOM      6  C   UNL     1     -10.862   1.386 -17.124  0.00  0.00    +0.191 A 
ATOM      7  N   UNL     1      -9.591   1.171 -17.406  0.00  0.00    -0.126 NA
ATOM      8  N   UNL     1      -9.262  -0.169 -17.386  0.00  0.00    -0.148 NA
ATOM      9  C   UNL     1     -10.304  -0.916 -17.092  0.00  0.00    +0.183 A 
ATOM     10  S   UNL     1     -11.750  -0.043 -16.824  0.00  0.00    -0.038 S 
ATOM     11  C   UNL     1     -14.037   5.055 -16.478  0.00  0.00    +0.211 A 
ATOM     12  N   UNL     1     -15.145   4.666 -15.737  0.00  0.00    -0.257 N 
ATOM     13  C   UNL     1     -15.211   3.616 -14.745  0.00  0.00    +0.158 C 
ATOM     14  C   UNL     1     -16.099   5.638 -15.936  0.00  0.00    +0.369 A 
ATOM     15  C   UNL     1     -15.493   6.639 -16.642  0.00  0.00    +0.219 A 
ATOM     16  N   UNL     1     -14.208   6.282 -16.944  0.00  0.00    -0.215 NA
ATOM     17  C   UNL     1     -10.663   3.853 -17.268  0.00  0.00    +0.137 C 
ENDROOT
BRANCH  14  18
ATOM     18  N   UNL     1     -17.432   5.596 -15.446  0.00  0.00    +0.100 N 
ATOM     19  O   UNL     1     -17.674   6.194 -14.392  0.00  0.00    +0.043 OA
ATOM     20  O   UNL     1     -18.242   4.945 -16.114  0.00  0.00    -0.575 OA
ENDBRANCH  14  18
TORSDOF 1
ENDMDL
MODEL 4
REMARK VINA RESULT:      -5.9      2.293      2.915
REMARK  Name = min_compound971.pdb
REMARK  2 active torsions:
REMARK  status: ('A' for Active; 'I' for Inactive)
REMARK    1  A    between atoms: _7  and  _17
REMARK    2  A    between atoms: _9  and  _20
REMARK                            x       y       z     vdW  Elec       q    Type
REMARK                         _______ _______ _______ _____ _____    ______ ____
ROOT
ATOM      1  C   UNL     1     -11.645   5.549 -17.021  0.00  0.00    +0.137 C 
ATOM      2  N   UNL     1     -12.112   4.258 -17.468  0.00  0.00    -0.223 N 
ATOM      3  C   UNL     1     -13.376   4.394 -18.087  0.00  0.00    +0.317 C 
ATOM      4  O   UNL     1     -14.141   3.482 -18.360  0.00  0.00    -0.252 OA
ATOM      5  N   UNL     1     -13.583   5.774 -18.296  0.00  0.00    -0.231 N 
ATOM      6  C   UNL     1     -14.659   6.347 -18.940  0.00  0.00    +0.191 A 
ATOM      7  N   UNL     1     -14.762   7.642 -19.169  0.00  0.00    -0.126 NA
ATOM      8  N   UNL     1     -15.921   7.972 -19.842  0.00  0.00    -0.148 NA
ATOM      9  C   UNL     1     -16.652   6.907 -20.091  0.00  0.00    +0.183 A 
ATOM     10  S   UNL     1     -15.984   5.439 -19.524  0.00  0.00    -0.038 S 
ATOM     11  C   UNL     1     -11.576   3.068 -17.015  0.00  0.00    +0.211 A 
ATOM     12  N   UNL     1     -11.820   1.782 -17.480  0.00  0.00    -0.257 N 
ATOM     13  C   UNL     1     -12.404   1.405 -18.749  0.00  0.00    +0.158 C 
ATOM     14  C   UNL     1     -11.164   0.933 -16.619  0.00  0.00    +0.369 A 
ATOM     15  C   UNL     1     -10.429   1.722 -15.779  0.00  0.00    +0.219 A 
ATOM     16  N   UNL     1     -10.667   3.040 -16.055  0.00  0.00    -0.215 NA
ATOM     17  C   UNL     1     -12.440   6.533 -17.851  0.00  0.00    +0.137 C 
ENDROOT
BRANCH  14  18
ATOM     18  N   UNL     1     -11.224  -0.486 -16.656  0.00  0.00    +0.100 N 
ATOM     19  O   UNL     1     -12.290  -1.023 -16.336  0.00  0.00    +0.043 OA
ATOM     20  O   UNL     1     -10.190  -1.071 -16.996  0.00  0.00    -0.575 OA
ENDBRANCH  14  18
TORSDOF 1
ENDMDL
MODEL 5
REMARK VINA RESULT:      -5.9      2.183      3.132
REMARK  Name = min_compound971.pdb
REMARK  2 active torsions:
REMARK  status: ('A' for Active; 'I' for Inactive)
REMARK    1  A    between atoms: _7  and  _17
REMARK    2  A    between atoms: _9  and  _20
REMARK                            x       y       z     vdW  Elec       q    Type
REMARK                         _______ _______ _______ _____ _____    ______ ____
ROOT
ATOM      1  C   UNL     1     -13.357   5.938 -17.143  0.00  0.00    +0.137 C 
ATOM      2  N   UNL     1     -13.275   4.573 -16.678  0.00  0.00    -0.223 N 
ATOM      3  C   UNL     1     -14.343   4.304 -15.791  0.00  0.00    +0.317 C 
ATOM      4  O   UNL     1     -14.433   3.337 -15.052  0.00  0.00    -0.252 OA
ATOM      5  N   UNL     1     -15.254   5.375 -15.912  0.00  0.00    -0.231 N 
ATOM      6  C   UNL     1     -16.474   5.481 -15.277  0.00  0.00    +0.191 A 
ATOM      7  N   UNL     1     -17.316   6.474 -15.486  0.00  0.00    -0.126 NA
ATOM      8  N   UNL     1     -18.476   6.351 -14.747  0.00  0.00    -0.148 NA
ATOM      9  C   UNL     1     -18.459   5.267 -14.003  0.00  0.00    +0.183 A 
ATOM     10  S   UNL     1     -17.038   4.328 -14.150  0.00  0.00    -0.038 S 
ATOM     11  C   UNL     1     -12.131   3.807 -16.794  0.00  0.00    +0.211 A 
ATOM     12  N   UNL     1     -11.973   2.451 -16.539  0.00  0.00    -0.257 N 
ATOM     13  C   UNL     1     -13.014   1.452 -16.436  0.00  0.00    +0.158 C 
ATOM     14  C   UNL     1     -10.627   2.193 -16.663  0.00  0.00    +0.369 A 
ATOM     15  C   UNL     1     -10.052   3.339 -17.137  0.00  0.00    +0.219 A 
ATOM     16  N   UNL     1     -10.999   4.321 -17.245  0.00  0.00    -0.215 NA
ATOM     17  C   UNL     1     -14.801   6.320 -16.903  0.00  0.00    +0.137 C 
ENDROOT
BRANCH  14  18
ATOM     18  N   UNL     1      -9.999   0.949 -16.389  0.00  0.00    +0.100 N 
ATOM     19  O   UNL     1      -9.860   0.626 -15.204  0.00  0.00    +0.043 OA
ATOM     20  O   UNL     1      -9.627   0.293 -17.368  0.00  0.00    -0.575 OA
ENDBRANCH  14  18
TORSDOF 1
ENDMDL
MODEL 6
REMARK VINA RESULT:      -5.8      3.273      4.380
REMARK  Name = min_compound971.pdb
REMARK  2 active torsions:
REMARK  status: ('A' for Active; 'I' for Inactive)
REMARK    1  A    between atoms: _7  and  _17
REMARK    2  A    between atoms: _9  and  _20
REMARK                            x       y       z     vdW  Elec       q    Type
REMARK                         _______ _______ _______ _____ _____    ______ ____
ROOT
ATOM      1  C   UNL     1     -15.036   6.983 -16.273  0.00  0.00    +0.137 C 
ATOM      2  N   UNL     1     -14.811   5.594 -15.951  0.00  0.00    -0.223 N 
ATOM      3  C   UNL     1     -15.265   5.328 -14.637  0.00  0.00    +0.317 C 
ATOM      4  O   UNL     1     -15.014   4.328 -13.983  0.00  0.00    -0.252 OA
ATOM      5  N   UNL     1     -16.028   6.443 -14.234  0.00  0.00    -0.231 N 
ATOM      6  C   UNL     1     -16.718   6.571 -13.047  0.00  0.00    +0.191 A 
ATOM      7  N   UNL     1     -17.476   7.611 -12.756  0.00  0.00    -0.126 NA
ATOM      8  N   UNL     1     -18.074   7.502 -11.517  0.00  0.00    -0.148 NA
ATOM      9  C   UNL     1     -17.739   6.381 -10.919  0.00  0.00    +0.183 A 
ATOM     10  S   UNL     1     -16.676   5.387 -11.816  0.00  0.00    -0.038 S 
ATOM     11  C   UNL     1     -13.955   4.784 -16.671  0.00  0.00    +0.211 A 
ATOM     12  N   UNL     1     -13.777   3.411 -16.567  0.00  0.00    -0.257 N 
ATOM     13  C   UNL     1     -14.669   2.456 -15.947  0.00  0.00    +0.158 C 
ATOM     14  C   UNL     1     -12.720   3.098 -17.392  0.00  0.00    +0.369 A 
ATOM     15  C   UNL     1     -12.409   4.241 -18.075  0.00  0.00    +0.219 A 
ATOM     16  N   UNL     1     -13.201   5.269 -17.644  0.00  0.00    -0.215 NA
ATOM     17  C   UNL     1     -16.106   7.417 -15.296  0.00  0.00    +0.137 C 
ENDROOT
BRANCH  14  18
ATOM     18  N   UNL     1     -12.126   1.814 -17.518  0.00  0.00    +0.100 N 
ATOM     19  O   UNL     1     -11.458   1.396 -16.566  0.00  0.00    +0.043 OA
ATOM     20  O   UNL     1     -12.317   1.223 -18.586  0.00  0.00    -0.575 OA
ENDBRANCH  14  18
TORSDOF 1
ENDMDL
MODEL 7
REMARK VINA RESULT:      -5.7      2.475      3.239
REMARK  Name = min_compound971.pdb
REMARK  2 active torsions:
REMARK  status: ('A' for Active; 'I' for Inactive)
REMARK    1  A    between atoms: _7  and  _17
REMARK    2  A    between atoms: _9  and  _20
REMARK                            x       y       z     vdW  Elec       q    Type
REMARK                         _______ _______ _______ _____ _____    ______ ____
ROOT
ATOM      1  C   UNL     1     -15.563   4.770 -13.927  0.00  0.00    +0.137 C 
ATOM      2  N   UNL     1     -14.806   4.850 -15.154  0.00  0.00    -0.223 N 
ATOM      3  C   UNL     1     -15.011   6.110 -15.762  0.00  0.00    +0.317 C 
ATOM      4  O   UNL     1     -14.710   6.410 -16.907  0.00  0.00    -0.252 OA
ATOM      5  N   UNL     1     -15.648   6.927 -14.804  0.00  0.00    -0.231 N 
ATOM      6  C   UNL     1     -15.968   8.260 -14.955  0.00  0.00    +0.191 A 
ATOM      7  N   UNL     1     -16.499   8.993 -13.995  0.00  0.00    -0.126 NA
ATOM      8  N   UNL     1     -16.713  10.300 -14.381  0.00  0.00    -0.148 NA
ATOM      9  C   UNL     1     -16.337  10.502 -15.625  0.00  0.00    +0.183 A 
ATOM     10  S   UNL     1     -15.702   9.120 -16.408  0.00  0.00    -0.038 S 
ATOM     11  C   UNL     1     -14.288   3.739 -15.791  0.00  0.00    +0.211 A 
ATOM     12  N   UNL     1     -13.418   3.694 -16.872  0.00  0.00    -0.257 N 
ATOM     13  C   UNL     1     -12.575   4.762 -17.364  0.00  0.00    +0.158 C 
ATOM     14  C   UNL     1     -13.313   2.368 -17.225  0.00  0.00    +0.369 A 
ATOM     15  C   UNL     1     -13.980   1.657 -16.266  0.00  0.00    +0.219 A 
ATOM     16  N   UNL     1     -14.551   2.514 -15.367  0.00  0.00    -0.215 NA
ATOM     17  C   UNL     1     -15.822   6.215 -13.562  0.00  0.00    +0.137 C 
ENDROOT
BRANCH  14  18
ATOM     18  N   UNL     1     -12.602   1.868 -18.348  0.00  0.00    +0.100 N 
ATOM     19  O   UNL     1     -13.146   1.949 -19.454  0.00  0.00    +0.043 OA
ATOM     20  O   UNL     1     -11.491   1.376 -18.120  0.00  0.00    -0.575 OA
ENDBRANCH  14  18
TORSDOF 1
ENDMDL
MODEL 8
REMARK VINA RESULT:      -5.6      9.213      9.832
REMARK  Name = min_compound971.pdb
REMARK  2 active torsions:
REMARK  status: ('A' for Active; 'I' for Inactive)
REMARK    1  A    between atoms: _7  and  _17
REMARK    2  A    between atoms: _9  and  _20
REMARK                            x       y       z     vdW  Elec       q    Type
REMARK                         _______ _______ _______ _____ _____    ______ ____
ROOT
ATOM      1  C   UNL     1     -18.218   3.896  -6.925  0.00  0.00    +0.137 C 
ATOM      2  N   UNL     1     -17.082   3.049  -7.202  0.00  0.00    -0.223 N 
ATOM      3  C   UNL     1     -16.585   3.324  -8.497  0.00  0.00    +0.317 C 
ATOM      4  O   UNL     1     -15.792   2.635  -9.120  0.00  0.00    -0.252 OA
ATOM      5  N   UNL     1     -17.200   4.519  -8.926  0.00  0.00    -0.231 N 
ATOM      6  C   UNL     1     -16.945   5.187 -10.106  0.00  0.00    +0.191 A 
ATOM      7  N   UNL     1     -17.501   6.341 -10.420  0.00  0.00    -0.126 NA
ATOM      8  N   UNL     1     -17.077   6.818 -11.644  0.00  0.00    -0.148 NA
ATOM      9  C   UNL     1     -16.219   5.999 -12.209  0.00  0.00    +0.183 A 
ATOM     10  S   UNL     1     -15.870   4.596 -11.295  0.00  0.00    -0.038 S 
ATOM     11  C   UNL     1     -16.793   1.915  -6.468  0.00  0.00    +0.211 A 
ATOM     12  N   UNL     1     -15.658   1.117  -6.527  0.00  0.00    -0.257 N 
ATOM     13  C   UNL     1     -14.374   1.461  -7.097  0.00  0.00    +0.158 C 
ATOM     14  C   UNL     1     -15.906   0.038  -5.709  0.00  0.00    +0.369 A 
ATOM     15  C   UNL     1     -17.088   0.296  -5.072  0.00  0.00    +0.219 A 
ATOM     16  N   UNL     1     -17.611   1.476  -5.525  0.00  0.00    -0.215 NA
ATOM     17  C   UNL     1     -18.066   5.044  -7.899  0.00  0.00    +0.137 C 
ENDROOT
BRANCH  14  18
ATOM     18  N   UNL     1     -15.053  -1.085  -5.548  0.00  0.00    +0.100 N 
ATOM     19  O   UNL     1     -14.504  -1.236  -4.451  0.00  0.00    +0.043 OA
ATOM     20  O   UNL     1     -14.917  -1.818  -6.534  0.00  0.00    -0.575 OA
ENDBRANCH  14  18
TORSDOF 1
ENDMDL
MODEL 9
REMARK VINA RESULT:      -5.5     11.681     13.298
REMARK  Name = min_compound971.pdb
REMARK  2 active torsions:
REMARK  status: ('A' for Active; 'I' for Inactive)
REMARK    1  A    between atoms: _7  and  _17
REMARK    2  A    between atoms: _9  and  _20
REMARK                            x       y       z     vdW  Elec       q    Type
REMARK                         _______ _______ _______ _____ _____    ______ ____
ROOT
ATOM      1  C   UNL     1     -14.136   0.799  -6.259  0.00  0.00    +0.137 C 
ATOM      2  N   UNL     1     -15.523   1.195  -6.186  0.00  0.00    -0.223 N 
ATOM      3  C   UNL     1     -16.165   0.499  -5.136  0.00  0.00    +0.317 C 
ATOM      4  O   UNL     1     -17.371   0.427  -4.958  0.00  0.00    -0.252 OA
ATOM      5  N   UNL     1     -15.150  -0.107  -4.366  0.00  0.00    -0.231 N 
ATOM      6  C   UNL     1     -15.330  -0.824  -3.202  0.00  0.00    +0.191 A 
ATOM      7  N   UNL     1     -14.333  -1.306  -2.485  0.00  0.00    -0.126 NA
ATOM      8  N   UNL     1     -14.764  -1.973  -1.356  0.00  0.00    -0.148 NA
ATOM      9  C   UNL     1     -16.076  -1.970  -1.268  0.00  0.00    +0.183 A 
ATOM     10  S   UNL     1     -16.872  -1.162  -2.548  0.00  0.00    -0.038 S 
ATOM     11  C   UNL     1     -16.172   1.849  -7.215  0.00  0.00    +0.211 A 
ATOM     12  N   UNL     1     -17.438   2.420  -7.209  0.00  0.00    -0.257 N 
ATOM     13  C   UNL     1     -18.231   2.780  -6.055  0.00  0.00    +0.158 C 
ATOM     14  C   UNL     1     -17.684   2.818  -8.504  0.00  0.00    +0.369 A 
ATOM     15  C   UNL     1     -16.522   2.627  -9.198  0.00  0.00    +0.219 A 
ATOM     16  N   UNL     1     -15.584   2.057  -8.382  0.00  0.00    -0.215 NA
ATOM     17  C   UNL     1     -13.847   0.226  -4.889  0.00  0.00    +0.137 C 
ENDROOT
BRANCH  14  18
ATOM     18  N   UNL     1     -18.907   3.363  -8.978  0.00  0.00    +0.100 N 
ATOM     19  O   UNL     1     -18.991   4.593  -9.065  0.00  0.00    +0.043 OA
ATOM     20  O   UNL     1     -19.799   2.554  -9.254  0.00  0.00    -0.575 OA
ENDBRANCH  14  18
TORSDOF 1
ENDMDL
