MODEL 1
REMARK VINA RESULT:      -6.0      0.000      0.000
REMARK  Name = min_compound950.pdb
REMARK  4 active torsions:
REMARK  status: ('A' for Active; 'I' for Inactive)
REMARK    1  A    between atoms: _7  and  _14
REMARK    2  A    between atoms: _9  and  _17
REMARK    3  A    between atoms: _10  and  _12
REMARK    4  A    between atoms: _13  and  _14
REMARK                            x       y       z     vdW  Elec       q    Type
REMARK                         _______ _______ _______ _____ _____    ______ ____
ROOT
ATOM      1  S   UNL     1     -14.521   7.779 -17.557  0.00  0.00    -0.072 S 
ATOM      2  C   UNL     1     -15.893   6.929 -16.889  0.00  0.00    +0.076 A 
ATOM      3  C   UNL     1     -17.200   7.660 -16.809  0.00  0.00    +0.073 C 
ATOM      4  N   UNL     1     -15.550   5.680 -16.526  0.00  0.00    -0.244 NA
ATOM      5  C   UNL     1     -14.152   5.361 -16.778  0.00  0.00    +0.080 A 
ATOM      6  C   UNL     1     -13.368   4.136 -16.541  0.00  0.00    +0.057 A 
ATOM      7  C   UNL     1     -11.937   3.933 -16.840  0.00  0.00    +0.111 A 
ATOM      8  C   UNL     1     -11.358   5.075 -17.404  0.00  0.00    +0.030 A 
ATOM      9  C   UNL     1     -12.075   6.289 -17.657  0.00  0.00    +0.019 A 
ATOM     10  C   UNL     1     -13.454   6.419 -17.344  0.00  0.00    +0.039 A 
ENDROOT
BRANCH   7  11
ATOM     11  S   UNL     1     -11.124   2.695 -16.600  0.00  0.00    +0.074 S 
ATOM     12  O   UNL     1      -9.932   3.309 -17.202  0.00  0.00    -0.150 OA
ATOM     13  O   UNL     1     -11.332   2.790 -15.148  0.00  0.00    -0.150 OA
BRANCH  11  14
ATOM     14  N   UNL     1     -10.311   1.457 -16.360  0.00  0.00    -0.186 N 
ATOM     15  H   UNL     1      -9.375   1.633 -16.017  0.00  0.00    +0.177 HD
ATOM     16  C   UNL     1     -10.757   0.160 -16.591  0.00  0.00    +0.229 C 
ATOM     17  C   UNL     1      -9.749  -0.913 -16.300  0.00  0.00    +0.111 C 
ATOM     18  O   UNL     1     -11.880  -0.072 -17.020  0.00  0.00    -0.275 OA
ENDBRANCH  11  14
ENDBRANCH   7  11
TORSDOF 2
ENDMDL
MODEL 2
REMARK VINA RESULT:      -5.7      2.754      6.589
REMARK  Name = min_compound950.pdb
REMARK  4 active torsions:
REMARK  status: ('A' for Active; 'I' for Inactive)
REMARK    1  A    between atoms: _7  and  _14
REMARK    2  A    between atoms: _9  and  _17
REMARK    3  A    between atoms: _10  and  _12
REMARK    4  A    between atoms: _13  and  _14
REMARK                            x       y       z     vdW  Elec       q    Type
REMARK                         _______ _______ _______ _____ _____    ______ ____
ROOT
ATOM      1  S   UNL     1     -10.090   1.406 -16.460  0.00  0.00    -0.072 S 
ATOM      2  C   UNL     1     -11.556   0.457 -16.494  0.00  0.00    +0.076 A 
ATOM      3  C   UNL     1     -11.439  -1.023 -16.283  0.00  0.00    +0.073 C 
ATOM      4  N   UNL     1     -12.626   1.241 -16.719  0.00  0.00    -0.244 NA
ATOM      5  C   UNL     1     -12.297   2.651 -16.872  0.00  0.00    +0.080 A 
ATOM      6  C   UNL     1     -13.139   3.833 -17.124  0.00  0.00    +0.057 A 
ATOM      7  C   UNL     1     -12.682   5.229 -17.264  0.00  0.00    +0.111 A 
ATOM      8  C   UNL     1     -11.294   5.335 -17.126  0.00  0.00    +0.030 A 
ATOM      9  C   UNL     1     -10.430   4.220 -16.879  0.00  0.00    +0.019 A 
ATOM     10  C   UNL     1     -10.936   2.899 -16.755  0.00  0.00    +0.039 A 
ENDROOT
BRANCH   7  11
ATOM     11  S   UNL     1     -13.526   6.441 -17.526  0.00  0.00    +0.074 S 
ATOM     12  O   UNL     1     -12.384   7.165 -18.102  0.00  0.00    -0.150 OA
ATOM     13  O   UNL     1     -14.421   5.678 -18.410  0.00  0.00    -0.150 OA
BRANCH  11  14
ATOM     14  N   UNL     1     -14.370   7.653 -17.788  0.00  0.00    -0.186 N 
ATOM     15  H   UNL     1     -14.366   7.964 -18.751  0.00  0.00    +0.177 HD
ATOM     16  C   UNL     1     -15.099   8.335 -16.819  0.00  0.00    +0.229 C 
ATOM     17  C   UNL     1     -15.845   9.537 -17.321  0.00  0.00    +0.111 C 
ATOM     18  O   UNL     1     -15.104   7.984 -15.646  0.00  0.00    -0.275 OA
ENDBRANCH  11  14
ENDBRANCH   7  11
TORSDOF 2
ENDMDL
MODEL 3
REMARK VINA RESULT:      -5.6      1.571      2.228
REMARK  Name = min_compound950.pdb
REMARK  4 active torsions:
REMARK  status: ('A' for Active; 'I' for Inactive)
REMARK    1  A    between atoms: _7  and  _14
REMARK    2  A    between atoms: _9  and  _17
REMARK    3  A    between atoms: _10  and  _12
REMARK    4  A    between atoms: _13  and  _14
REMARK                            x       y       z     vdW  Elec       q    Type
REMARK                         _______ _______ _______ _____ _____    ______ ____
ROOT
ATOM      1  S   UNL     1     -15.930   6.689 -15.613  0.00  0.00    -0.072 S 
ATOM      2  C   UNL     1     -15.149   7.713 -16.793  0.00  0.00    +0.076 A 
ATOM      3  C   UNL     1     -15.695   9.096 -16.992  0.00  0.00    +0.073 C 
ATOM      4  N   UNL     1     -14.121   7.071 -17.377  0.00  0.00    -0.244 NA
ATOM      5  C   UNL     1     -13.924   5.715 -16.886  0.00  0.00    +0.080 A 
ATOM      6  C   UNL     1     -12.940   4.677 -17.238  0.00  0.00    +0.057 A 
ATOM      7  C   UNL     1     -12.842   3.321 -16.665  0.00  0.00    +0.111 A 
ATOM      8  C   UNL     1     -13.828   3.095 -15.699  0.00  0.00    +0.030 A 
ATOM      9  C   UNL     1     -14.808   4.069 -15.318  0.00  0.00    +0.019 A 
ATOM     10  C   UNL     1     -14.846   5.359 -15.910  0.00  0.00    +0.039 A 
ENDROOT
BRANCH   7  11
ATOM     11  S   UNL     1     -11.849   2.253 -17.017  0.00  0.00    +0.074 S 
ATOM     12  O   UNL     1     -12.769   1.660 -17.999  0.00  0.00    -0.150 OA
ATOM     13  O   UNL     1     -10.867   3.254 -17.458  0.00  0.00    -0.150 OA
BRANCH  11  14
ATOM     14  N   UNL     1     -10.856   1.186 -17.369  0.00  0.00    -0.186 N 
ATOM     15  H   UNL     1     -10.861   0.917 -18.345  0.00  0.00    +0.177 HD
ATOM     16  C   UNL     1      -9.995   0.575 -16.464  0.00  0.00    +0.229 C 
ATOM     17  C   UNL     1      -9.112  -0.487 -17.051  0.00  0.00    +0.111 C 
ATOM     18  O   UNL     1      -9.985   0.875 -15.277  0.00  0.00    -0.275 OA
ENDBRANCH  11  14
ENDBRANCH   7  11
TORSDOF 2
ENDMDL
MODEL 4
REMARK VINA RESULT:      -5.6      1.644      1.835
REMARK  Name = min_compound950.pdb
REMARK  4 active torsions:
REMARK  status: ('A' for Active; 'I' for Inactive)
REMARK    1  A    between atoms: _7  and  _14
REMARK    2  A    between atoms: _9  and  _17
REMARK    3  A    between atoms: _10  and  _12
REMARK    4  A    between atoms: _13  and  _14
REMARK                            x       y       z     vdW  Elec       q    Type
REMARK                         _______ _______ _______ _____ _____    ______ ____
ROOT
ATOM      1  S   UNL     1     -16.308   6.558 -16.264  0.00  0.00    -0.072 S 
ATOM      2  C   UNL     1     -16.655   6.124 -14.608  0.00  0.00    +0.076 A 
ATOM      3  C   UNL     1     -17.744   6.874 -13.899  0.00  0.00    +0.073 C 
ATOM      4  N   UNL     1     -15.847   5.130 -14.197  0.00  0.00    -0.244 NA
ATOM      5  C   UNL     1     -14.911   4.678 -15.215  0.00  0.00    +0.080 A 
ATOM      6  C   UNL     1     -13.870   3.635 -15.197  0.00  0.00    +0.057 A 
ATOM      7  C   UNL     1     -12.970   3.266 -16.307  0.00  0.00    +0.111 A 
ATOM      8  C   UNL     1     -13.209   4.042 -17.446  0.00  0.00    +0.030 A 
ATOM      9  C   UNL     1     -14.208   5.066 -17.518  0.00  0.00    +0.019 A 
ATOM     10  C   UNL     1     -15.043   5.371 -16.411  0.00  0.00    +0.039 A 
ENDROOT
BRANCH   7  11
ATOM     11  S   UNL     1     -11.903   2.212 -16.301  0.00  0.00    +0.074 S 
ATOM     12  O   UNL     1     -11.684   2.365 -17.747  0.00  0.00    -0.150 OA
ATOM     13  O   UNL     1     -11.084   2.987 -15.358  0.00  0.00    -0.150 OA
BRANCH  11  14
ATOM     14  N   UNL     1     -10.837   1.157 -16.296  0.00  0.00    -0.186 N 
ATOM     15  H   UNL     1      -9.898   1.515 -16.176  0.00  0.00    +0.177 HD
ATOM     16  C   UNL     1     -11.068  -0.205 -16.458  0.00  0.00    +0.229 C 
ATOM     17  C   UNL     1      -9.835  -1.060 -16.443  0.00  0.00    +0.111 C 
ATOM     18  O   UNL     1     -12.195  -0.655 -16.620  0.00  0.00    -0.275 OA
ENDBRANCH  11  14
ENDBRANCH   7  11
TORSDOF 2
ENDMDL
MODEL 5
REMARK VINA RESULT:      -5.4     14.213     15.071
REMARK  Name = min_compound950.pdb
REMARK  4 active torsions:
REMARK  status: ('A' for Active; 'I' for Inactive)
REMARK    1  A    between atoms: _7  and  _14
REMARK    2  A    between atoms: _9  and  _17
REMARK    3  A    between atoms: _10  and  _12
REMARK    4  A    between atoms: _13  and  _14
REMARK                            x       y       z     vdW  Elec       q    Type
REMARK                         _______ _______ _______ _____ _____    ______ ____
ROOT
ATOM      1  S   UNL     1     -15.340   1.611  -5.902  0.00  0.00    -0.072 S 
ATOM      2  C   UNL     1     -16.383   0.505  -6.762  0.00  0.00    +0.076 A 
ATOM      3  C   UNL     1     -17.053   0.999  -8.010  0.00  0.00    +0.073 C 
ATOM      4  N   UNL     1     -16.432  -0.687  -6.140  0.00  0.00    -0.244 NA
ATOM      5  C   UNL     1     -15.618  -0.751  -4.934  0.00  0.00    +0.080 A 
ATOM      6  C   UNL     1     -15.383  -1.836  -3.967  0.00  0.00    +0.057 A 
ATOM      7  C   UNL     1     -14.528  -1.778  -2.765  0.00  0.00    +0.111 A 
ATOM      8  C   UNL     1     -13.924  -0.525  -2.620  0.00  0.00    +0.030 A 
ATOM      9  C   UNL     1     -14.118   0.563  -3.531  0.00  0.00    +0.019 A 
ATOM     10  C   UNL     1     -14.956   0.441  -4.671  0.00  0.00    +0.039 A 
ENDROOT
BRANCH   7  11
ATOM     11  S   UNL     1     -14.282  -2.873  -1.769  0.00  0.00    +0.074 S 
ATOM     12  O   UNL     1     -15.193  -2.251  -0.797  0.00  0.00    -0.150 OA
ATOM     13  O   UNL     1     -14.799  -3.890  -2.697  0.00  0.00    -0.150 OA
BRANCH  11  14
ATOM     14  N   UNL     1     -14.037  -3.967  -0.773  0.00  0.00    -0.186 N 
ATOM     15  H   UNL     1     -14.876  -4.335  -0.343  0.00  0.00    +0.177 HD
ATOM     16  C   UNL     1     -12.782  -4.453  -0.424  0.00  0.00    +0.229 C 
ATOM     17  C   UNL     1     -12.792  -5.533   0.619  0.00  0.00    +0.111 C 
ATOM     18  O   UNL     1     -11.755  -4.010  -0.921  0.00  0.00    -0.275 OA
ENDBRANCH  11  14
ENDBRANCH   7  11
TORSDOF 2
ENDMDL
MODEL 6
REMARK VINA RESULT:      -5.3     11.282     11.865
REMARK  Name = min_compound950.pdb
REMARK  4 active torsions:
REMARK  status: ('A' for Active; 'I' for Inactive)
REMARK    1  A    between atoms: _7  and  _14
REMARK    2  A    between atoms: _9  and  _17
REMARK    3  A    between atoms: _10  and  _12
REMARK    4  A    between atoms: _13  and  _14
REMARK                            x       y       z     vdW  Elec       q    Type
REMARK                         _______ _______ _______ _____ _____    ______ ____
ROOT
ATOM      1  S   UNL     1     -17.578   3.993  -8.156  0.00  0.00    -0.072 S 
ATOM      2  C   UNL     1     -17.336   3.138  -9.660  0.00  0.00    +0.076 A 
ATOM      3  C   UNL     1     -17.762   3.815 -10.929  0.00  0.00    +0.073 C 
ATOM      4  N   UNL     1     -16.774   1.935  -9.440  0.00  0.00    -0.244 NA
ATOM      5  C   UNL     1     -16.516   1.659  -8.034  0.00  0.00    +0.080 A 
ATOM      6  C   UNL     1     -15.926   0.491  -7.356  0.00  0.00    +0.057 A 
ATOM      7  C   UNL     1     -15.717   0.325  -5.905  0.00  0.00    +0.111 A 
ATOM      8  C   UNL     1     -16.155   1.444  -5.188  0.00  0.00    +0.030 A 
ATOM      9  C   UNL     1     -16.733   2.604  -5.796  0.00  0.00    +0.019 A 
ATOM     10  C   UNL     1     -16.907   2.700  -7.203  0.00  0.00    +0.039 A 
ENDROOT
BRANCH   7  11
ATOM     11  S   UNL     1     -15.123  -0.858  -5.200  0.00  0.00    +0.074 S 
ATOM     12  O   UNL     1     -14.927  -1.571  -6.471  0.00  0.00    -0.150 OA
ATOM     13  O   UNL     1     -14.032  -0.038  -4.654  0.00  0.00    -0.150 OA
BRANCH  11  14
ATOM     14  N   UNL     1     -14.529  -2.042  -4.496  0.00  0.00    -0.186 N 
ATOM     15  H   UNL     1     -13.854  -2.558  -5.045  0.00  0.00    +0.177 HD
ATOM     16  C   UNL     1     -14.861  -2.445  -3.206  0.00  0.00    +0.229 C 
ATOM     17  C   UNL     1     -14.151  -3.678  -2.729  0.00  0.00    +0.111 C 
ATOM     18  O   UNL     1     -15.686  -1.842  -2.533  0.00  0.00    -0.275 OA
ENDBRANCH  11  14
ENDBRANCH   7  11
TORSDOF 2
ENDMDL
MODEL 7
REMARK VINA RESULT:      -5.3     13.183     14.954
REMARK  Name = min_compound950.pdb
REMARK  4 active torsions:
REMARK  status: ('A' for Active; 'I' for Inactive)
REMARK    1  A    between atoms: _7  and  _14
REMARK    2  A    between atoms: _9  and  _17
REMARK    3  A    between atoms: _10  and  _12
REMARK    4  A    between atoms: _13  and  _14
REMARK                            x       y       z     vdW  Elec       q    Type
REMARK                         _______ _______ _______ _____ _____    ______ ____
ROOT
ATOM      1  S   UNL     1     -15.300  -2.974  -0.707  0.00  0.00    -0.072 S 
ATOM      2  C   UNL     1     -14.258  -4.143  -1.482  0.00  0.00    +0.076 A 
ATOM      3  C   UNL     1     -13.798  -5.318  -0.672  0.00  0.00    +0.073 C 
ATOM      4  N   UNL     1     -14.013  -3.791  -2.757  0.00  0.00    -0.244 NA
ATOM      5  C   UNL     1     -14.665  -2.553  -3.159  0.00  0.00    +0.080 A 
ATOM      6  C   UNL     1     -14.669  -1.816  -4.434  0.00  0.00    +0.057 A 
ATOM      7  C   UNL     1     -15.375  -0.553  -4.722  0.00  0.00    +0.111 A 
ATOM      8  C   UNL     1     -16.084  -0.091  -3.607  0.00  0.00    +0.030 A 
ATOM      9  C   UNL     1     -16.115  -0.769  -2.346  0.00  0.00    +0.019 A 
ATOM     10  C   UNL     1     -15.410  -1.984  -2.135  0.00  0.00    +0.039 A 
ENDROOT
BRANCH   7  11
ATOM     11  S   UNL     1     -15.385   0.211  -6.012  0.00  0.00    +0.074 S 
ATOM     12  O   UNL     1     -14.009   0.680  -5.795  0.00  0.00    -0.150 OA
ATOM     13  O   UNL     1     -15.618  -1.017  -6.786  0.00  0.00    -0.150 OA
BRANCH  11  14
ATOM     14  N   UNL     1     -15.395   0.976  -7.303  0.00  0.00    -0.186 N 
ATOM     15  H   UNL     1     -14.694   0.677  -7.970  0.00  0.00    +0.177 HD
ATOM     16  C   UNL     1     -16.260   2.024  -7.597  0.00  0.00    +0.229 C 
ATOM     17  C   UNL     1     -16.057   2.650  -8.945  0.00  0.00    +0.111 C 
ATOM     18  O   UNL     1     -17.104   2.410  -6.797  0.00  0.00    -0.275 OA
ENDBRANCH  11  14
ENDBRANCH   7  11
TORSDOF 2
ENDMDL
MODEL 8
REMARK VINA RESULT:      -5.2     10.175     10.822
REMARK  Name = min_compound950.pdb
REMARK  4 active torsions:
REMARK  status: ('A' for Active; 'I' for Inactive)
REMARK    1  A    between atoms: _7  and  _14
REMARK    2  A    between atoms: _9  and  _17
REMARK    3  A    between atoms: _10  and  _12
REMARK    4  A    between atoms: _13  and  _14
REMARK                            x       y       z     vdW  Elec       q    Type
REMARK                         _______ _______ _______ _____ _____    ______ ____
ROOT
ATOM      1  S   UNL     1     -18.355   3.914 -10.224  0.00  0.00    -0.072 S 
ATOM      2  C   UNL     1     -16.741   4.505 -10.536  0.00  0.00    +0.076 A 
ATOM      3  C   UNL     1     -16.587   5.662 -11.477  0.00  0.00    +0.073 C 
ATOM      4  N   UNL     1     -15.831   3.792  -9.847  0.00  0.00    -0.244 NA
ATOM      5  C   UNL     1     -16.411   2.733  -9.034  0.00  0.00    +0.080 A 
ATOM      6  C   UNL     1     -15.798   1.734  -8.142  0.00  0.00    +0.057 A 
ATOM      7  C   UNL     1     -16.500   0.695  -7.363  0.00  0.00    +0.111 A 
ATOM      8  C   UNL     1     -17.884   0.749  -7.561  0.00  0.00    +0.030 A 
ATOM      9  C   UNL     1     -18.531   1.699  -8.415  0.00  0.00    +0.019 A 
ATOM     10  C   UNL     1     -17.794   2.674  -9.138  0.00  0.00    +0.039 A 
ENDROOT
BRANCH   7  11
ATOM     11  S   UNL     1     -15.890  -0.330  -6.455  0.00  0.00    +0.074 S 
ATOM     12  O   UNL     1     -16.444  -1.432  -7.256  0.00  0.00    -0.150 OA
ATOM     13  O   UNL     1     -14.534   0.162  -6.741  0.00  0.00    -0.150 OA
BRANCH  11  14
ATOM     14  N   UNL     1     -15.279  -1.356  -5.547  0.00  0.00    -0.186 N 
ATOM     15  H   UNL     1     -14.918  -2.173  -6.024  0.00  0.00    +0.177 HD
ATOM     16  C   UNL     1     -15.209  -1.247  -4.162  0.00  0.00    +0.229 C 
ATOM     17  C   UNL     1     -14.576  -2.417  -3.469  0.00  0.00    +0.111 C 
ATOM     18  O   UNL     1     -15.653  -0.274  -3.567  0.00  0.00    -0.275 OA
ENDBRANCH  11  14
ENDBRANCH   7  11
TORSDOF 2
ENDMDL
MODEL 9
REMARK VINA RESULT:      -5.1     12.849     13.501
REMARK  Name = min_compound950.pdb
REMARK  4 active torsions:
REMARK  status: ('A' for Active; 'I' for Inactive)
REMARK    1  A    between atoms: _7  and  _14
REMARK    2  A    between atoms: _9  and  _17
REMARK    3  A    between atoms: _10  and  _12
REMARK    4  A    between atoms: _13  and  _14
REMARK                            x       y       z     vdW  Elec       q    Type
REMARK                         _______ _______ _______ _____ _____    ______ ____
ROOT
ATOM      1  S   UNL     1     -16.049   1.873  -8.103  0.00  0.00    -0.072 S 
ATOM      2  C   UNL     1     -17.748   1.642  -7.770  0.00  0.00    +0.076 A 
ATOM      3  C   UNL     1     -18.738   2.283  -8.697  0.00  0.00    +0.073 C 
ATOM      4  N   UNL     1     -17.921   0.885  -6.671  0.00  0.00    -0.244 NA
ATOM      5  C   UNL     1     -16.673   0.459  -6.053  0.00  0.00    +0.080 A 
ATOM      6  C   UNL     1     -16.400  -0.363  -4.861  0.00  0.00    +0.057 A 
ATOM      7  C   UNL     1     -15.075  -0.729  -4.326  0.00  0.00    +0.111 A 
ATOM      8  C   UNL     1     -14.039  -0.194  -5.099  0.00  0.00    +0.030 A 
ATOM      9  C   UNL     1     -14.249   0.610  -6.265  0.00  0.00    +0.019 A 
ATOM     10  C   UNL     1     -15.554   0.926  -6.728  0.00  0.00    +0.039 A 
ENDROOT
BRANCH   7  11
ATOM     11  S   UNL     1     -14.782  -1.560  -3.112  0.00  0.00    +0.074 S 
ATOM     12  O   UNL     1     -13.922  -0.510  -2.547  0.00  0.00    -0.150 OA
ATOM     13  O   UNL     1     -16.205  -1.605  -2.747  0.00  0.00    -0.150 OA
BRANCH  11  14
ATOM     14  N   UNL     1     -14.488  -2.391  -1.898  0.00  0.00    -0.186 N 
ATOM     15  H   UNL     1     -14.550  -1.887  -1.023  0.00  0.00    +0.177 HD
ATOM     16  C   UNL     1     -14.140  -3.738  -1.925  0.00  0.00    +0.229 C 
ATOM     17  C   UNL     1     -13.867  -4.345  -0.581  0.00  0.00    +0.111 C 
ATOM     18  O   UNL     1     -14.046  -4.361  -2.975  0.00  0.00    -0.275 OA
ENDBRANCH  11  14
ENDBRANCH   7  11
TORSDOF 2
ENDMDL
