MODEL 1
REMARK VINA RESULT:      -6.1      0.000      0.000
REMARK  Name = min_compound913.pdb
REMARK  6 active torsions:
REMARK  status: ('A' for Active; 'I' for Inactive)
REMARK    1  A    between atoms: _1  and  _2
REMARK    2  A    between atoms: _1  and  _15
REMARK    3  A    between atoms: _7  and  _8
REMARK    4  A    between atoms: _13  and  _16
REMARK    5  A    between atoms: _13  and  _17
REMARK    6  A    between atoms: _17  and  _18
REMARK                            x       y       z     vdW  Elec       q    Type
REMARK                         _______ _______ _______ _____ _____    ______ ____
ROOT
ATOM      1  N   UNL     1     -13.961   3.126 -17.970  0.00  0.00    -0.226 NA
ATOM      2  C   UNL     1     -13.779   4.099 -18.790  0.00  0.00    +0.155 C 
ATOM      3  S   UNL     1     -15.206   4.875 -19.481  0.00  0.00    -0.088 S 
ATOM      4  C   UNL     1     -14.206   6.097 -20.392  0.00  0.00    +0.104 C 
ATOM      5  C   UNL     1     -12.832   6.094 -19.701  0.00  0.00    +0.063 C 
ATOM      6  C   UNL     1     -11.721   6.431 -20.698  0.00  0.00    +0.035 C 
ATOM      7  N   UNL     1     -12.639   4.725 -19.218  0.00  0.00    -0.315 N 
ATOM      8  H   UNL     1     -11.820   4.593 -18.631  0.00  0.00    +0.149 HD
ENDROOT
BRANCH   1  12
ATOM      9  C   UNL     1     -10.712   1.194 -16.112  0.00  0.00    +0.120 A 
ATOM     10  C   UNL     1     -11.209   0.741 -17.337  0.00  0.00    +0.048 A 
ATOM     11  C   UNL     1     -12.277   1.395 -17.956  0.00  0.00    +0.031 A 
ATOM     12  C   UNL     1     -12.855   2.518 -17.367  0.00  0.00    +0.067 A 
ATOM     13  C   UNL     1     -12.361   2.966 -16.137  0.00  0.00    +0.031 A 
ATOM     14  C   UNL     1     -11.287   2.317 -15.517  0.00  0.00    +0.048 A 
BRANCH   9  15
ATOM     15  O   UNL     1      -9.675   0.459 -15.606  0.00  0.00    -0.495 OA
ATOM     16  C   UNL     1      -9.656  -0.925 -15.929  0.00  0.00    +0.277 C 
ENDBRANCH   9  15
ENDBRANCH   1  12
BRANCH   5  17
ATOM     17  C   UNL     1     -12.801   7.071 -18.497  0.00  0.00    +0.182 C 
BRANCH  17  18
ATOM     18  O   UNL     1     -11.498   7.641 -18.349  0.00  0.00    -0.393 OA
ATOM     19  H   UNL     1     -10.858   6.915 -18.450  0.00  0.00    +0.209 HD
ENDBRANCH  17  18
ENDBRANCH   5  17
TORSDOF 4
ENDMDL
MODEL 2
REMARK VINA RESULT:      -6.1      3.923      6.008
REMARK  Name = min_compound913.pdb
REMARK  6 active torsions:
REMARK  status: ('A' for Active; 'I' for Inactive)
REMARK    1  A    between atoms: _1  and  _2
REMARK    2  A    between atoms: _1  and  _15
REMARK    3  A    between atoms: _7  and  _8
REMARK    4  A    between atoms: _13  and  _16
REMARK    5  A    between atoms: _13  and  _17
REMARK    6  A    between atoms: _17  and  _18
REMARK                            x       y       z     vdW  Elec       q    Type
REMARK                         _______ _______ _______ _____ _____    ______ ____
ROOT
ATOM      1  N   UNL     1     -14.522   3.430 -16.627  0.00  0.00    -0.226 NA
ATOM      2  C   UNL     1     -13.665   2.528 -16.950  0.00  0.00    +0.155 C 
ATOM      3  S   UNL     1     -12.884   2.659 -18.528  0.00  0.00    -0.088 S 
ATOM      4  C   UNL     1     -11.844   1.192 -18.229  0.00  0.00    +0.104 C 
ATOM      5  C   UNL     1     -11.855   0.989 -16.705  0.00  0.00    +0.063 C 
ATOM      6  C   UNL     1     -11.709  -0.493 -16.352  0.00  0.00    +0.035 C 
ATOM      7  N   UNL     1     -13.169   1.457 -16.257  0.00  0.00    -0.315 N 
ATOM      8  H   UNL     1     -13.284   1.497 -15.248  0.00  0.00    +0.149 HD
ENDROOT
BRANCH   1  12
ATOM      9  C   UNL     1     -16.444   3.370 -12.879  0.00  0.00    +0.120 A 
ATOM     10  C   UNL     1     -16.890   2.558 -13.925  0.00  0.00    +0.048 A 
ATOM     11  C   UNL     1     -16.239   2.571 -15.162  0.00  0.00    +0.031 A 
ATOM     12  C   UNL     1     -15.126   3.385 -15.366  0.00  0.00    +0.067 A 
ATOM     13  C   UNL     1     -14.685   4.202 -14.320  0.00  0.00    +0.031 A 
ATOM     14  C   UNL     1     -15.331   4.187 -13.078  0.00  0.00    +0.048 A 
BRANCH   9  15
ATOM     15  O   UNL     1     -17.175   3.275 -11.727  0.00  0.00    -0.495 OA
ATOM     16  C   UNL     1     -16.531   3.679 -10.526  0.00  0.00    +0.277 C 
ENDBRANCH   9  15
ENDBRANCH   1  12
BRANCH   5  17
ATOM     17  C   UNL     1     -10.749   1.827 -16.013  0.00  0.00    +0.182 C 
BRANCH  17  18
ATOM     18  O   UNL     1      -9.969   1.003 -15.143  0.00  0.00    -0.393 OA
ATOM     19  H   UNL     1     -10.492   0.871 -14.333  0.00  0.00    +0.209 HD
ENDBRANCH  17  18
ENDBRANCH   5  17
TORSDOF 4
ENDMDL
MODEL 3
REMARK VINA RESULT:      -5.9      3.520      4.765
REMARK  Name = min_compound913.pdb
REMARK  6 active torsions:
REMARK  status: ('A' for Active; 'I' for Inactive)
REMARK    1  A    between atoms: _1  and  _2
REMARK    2  A    between atoms: _1  and  _15
REMARK    3  A    between atoms: _7  and  _8
REMARK    4  A    between atoms: _13  and  _16
REMARK    5  A    between atoms: _13  and  _17
REMARK    6  A    between atoms: _17  and  _18
REMARK                            x       y       z     vdW  Elec       q    Type
REMARK                         _______ _______ _______ _____ _____    ______ ____
ROOT
ATOM      1  N   UNL     1     -13.760   4.071 -16.649  0.00  0.00    -0.226 NA
ATOM      2  C   UNL     1     -14.491   4.456 -15.664  0.00  0.00    +0.155 C 
ATOM      3  S   UNL     1     -15.862   5.511 -16.016  0.00  0.00    -0.088 S 
ATOM      4  C   UNL     1     -16.394   5.542 -14.272  0.00  0.00    +0.104 C 
ATOM      5  C   UNL     1     -15.718   4.325 -13.619  0.00  0.00    +0.063 C 
ATOM      6  C   UNL     1     -15.428   4.592 -12.140  0.00  0.00    +0.035 C 
ATOM      7  N   UNL     1     -14.449   4.153 -14.330  0.00  0.00    -0.315 N 
ATOM      8  H   UNL     1     -13.937   3.309 -14.088  0.00  0.00    +0.149 HD
ENDROOT
BRANCH   1  12
ATOM      9  C   UNL     1     -10.608   1.400 -15.826  0.00  0.00    +0.120 A 
ATOM     10  C   UNL     1     -11.834   0.934 -16.310  0.00  0.00    +0.048 A 
ATOM     11  C   UNL     1     -12.871   1.827 -16.596  0.00  0.00    +0.031 A 
ATOM     12  C   UNL     1     -12.694   3.197 -16.414  0.00  0.00    +0.067 A 
ATOM     13  C   UNL     1     -11.469   3.661 -15.923  0.00  0.00    +0.031 A 
ATOM     14  C   UNL     1     -10.426   2.770 -15.642  0.00  0.00    +0.048 A 
BRANCH   9  15
ATOM     15  O   UNL     1      -9.683   0.425 -15.574  0.00  0.00    -0.495 OA
ATOM     16  C   UNL     1      -9.742  -0.739 -16.388  0.00  0.00    +0.277 C 
ENDBRANCH   9  15
ENDBRANCH   1  12
BRANCH   5  17
ATOM     17  C   UNL     1     -16.576   3.043 -13.785  0.00  0.00    +0.182 C 
BRANCH  17  18
ATOM     18  O   UNL     1     -17.203   2.699 -12.547  0.00  0.00    -0.393 OA
ATOM     19  H   UNL     1     -18.164   2.746 -12.693  0.00  0.00    +0.209 HD
ENDBRANCH  17  18
ENDBRANCH   5  17
TORSDOF 4
ENDMDL
MODEL 4
REMARK VINA RESULT:      -5.7      1.214      1.652
REMARK  Name = min_compound913.pdb
REMARK  6 active torsions:
REMARK  status: ('A' for Active; 'I' for Inactive)
REMARK    1  A    between atoms: _1  and  _2
REMARK    2  A    between atoms: _1  and  _15
REMARK    3  A    between atoms: _7  and  _8
REMARK    4  A    between atoms: _13  and  _16
REMARK    5  A    between atoms: _13  and  _17
REMARK    6  A    between atoms: _17  and  _18
REMARK                            x       y       z     vdW  Elec       q    Type
REMARK                         _______ _______ _______ _____ _____    ______ ____
ROOT
ATOM      1  N   UNL     1     -14.102   3.486 -16.248  0.00  0.00    -0.226 NA
ATOM      2  C   UNL     1     -14.138   4.352 -17.197  0.00  0.00    +0.155 C 
ATOM      3  S   UNL     1     -15.502   5.472 -17.240  0.00  0.00    -0.088 S 
ATOM      4  C   UNL     1     -14.842   6.352 -18.694  0.00  0.00    +0.104 C 
ATOM      5  C   UNL     1     -13.348   5.990 -18.745  0.00  0.00    +0.063 C 
ATOM      6  C   UNL     1     -12.838   5.987 -20.189  0.00  0.00    +0.035 C 
ATOM      7  N   UNL     1     -13.255   4.632 -18.205  0.00  0.00    -0.315 N 
ATOM      8  H   UNL     1     -12.307   4.295 -18.063  0.00  0.00    +0.149 HD
ENDROOT
BRANCH   1  12
ATOM      9  C   UNL     1     -10.762   0.925 -16.066  0.00  0.00    +0.120 A 
ATOM     10  C   UNL     1     -10.707   2.213 -15.526  0.00  0.00    +0.048 A 
ATOM     11  C   UNL     1     -11.823   3.052 -15.576  0.00  0.00    +0.031 A 
ATOM     12  C   UNL     1     -13.013   2.613 -16.154  0.00  0.00    +0.067 A 
ATOM     13  C   UNL     1     -13.063   1.327 -16.700  0.00  0.00    +0.031 A 
ATOM     14  C   UNL     1     -11.949   0.481 -16.647  0.00  0.00    +0.048 A 
BRANCH   9  15
ATOM     15  O   UNL     1      -9.600   0.211 -15.966  0.00  0.00    -0.495 OA
ATOM     16  C   UNL     1      -9.098  -0.366 -17.164  0.00  0.00    +0.277 C 
ENDBRANCH   9  15
ENDBRANCH   1  12
BRANCH   5  17
ATOM     17  C   UNL     1     -12.501   6.950 -17.869  0.00  0.00    +0.182 C 
BRANCH  17  18
ATOM     18  O   UNL     1     -11.546   7.647 -18.672  0.00  0.00    -0.393 OA
ATOM     19  H   UNL     1     -10.767   7.806 -18.111  0.00  0.00    +0.209 HD
ENDBRANCH  17  18
ENDBRANCH   5  17
TORSDOF 4
ENDMDL
MODEL 5
REMARK VINA RESULT:      -5.6      8.540     10.945
REMARK  Name = min_compound913.pdb
REMARK  6 active torsions:
REMARK  status: ('A' for Active; 'I' for Inactive)
REMARK    1  A    between atoms: _1  and  _2
REMARK    2  A    between atoms: _1  and  _15
REMARK    3  A    between atoms: _7  and  _8
REMARK    4  A    between atoms: _13  and  _16
REMARK    5  A    between atoms: _13  and  _17
REMARK    6  A    between atoms: _17  and  _18
REMARK                            x       y       z     vdW  Elec       q    Type
REMARK                         _______ _______ _______ _____ _____    ______ ____
ROOT
ATOM      1  N   UNL     1     -17.442   3.485  -9.037  0.00  0.00    -0.226 NA
ATOM      2  C   UNL     1     -16.894   2.719  -8.162  0.00  0.00    +0.155 C 
ATOM      3  S   UNL     1     -17.767   2.432  -6.655  0.00  0.00    -0.088 S 
ATOM      4  C   UNL     1     -16.490   1.287  -6.035  0.00  0.00    +0.104 C 
ATOM      5  C   UNL     1     -15.697   0.851  -7.278  0.00  0.00    +0.063 C 
ATOM      6  C   UNL     1     -14.242   0.545  -6.915  0.00  0.00    +0.035 C 
ATOM      7  N   UNL     1     -15.731   1.999  -8.187  0.00  0.00    -0.315 N 
ATOM      8  H   UNL     1     -15.345   1.820  -9.111  0.00  0.00    +0.149 HD
ENDROOT
BRANCH   1  12
ATOM      9  C   UNL     1     -15.575   4.247 -12.736  0.00  0.00    +0.120 A 
ATOM     10  C   UNL     1     -15.118   4.856 -11.564  0.00  0.00    +0.048 A 
ATOM     11  C   UNL     1     -15.731   4.587 -10.337  0.00  0.00    +0.031 A 
ATOM     12  C   UNL     1     -16.801   3.698 -10.263  0.00  0.00    +0.067 A 
ATOM     13  C   UNL     1     -17.262   3.095 -11.437  0.00  0.00    +0.031 A 
ATOM     14  C   UNL     1     -16.647   3.358 -12.667  0.00  0.00    +0.048 A 
BRANCH   9  15
ATOM     15  O   UNL     1     -14.899   4.605 -13.869  0.00  0.00    -0.495 OA
ATOM     16  C   UNL     1     -14.768   3.610 -14.876  0.00  0.00    +0.277 C 
ENDBRANCH   9  15
ENDBRANCH   1  12
BRANCH   5  17
ATOM     17  C   UNL     1     -16.356  -0.371  -7.970  0.00  0.00    +0.182 C 
BRANCH  17  18
ATOM     18  O   UNL     1     -16.297  -1.519  -7.120  0.00  0.00    -0.393 OA
ATOM     19  H   UNL     1     -17.161  -1.962  -7.181  0.00  0.00    +0.209 HD
ENDBRANCH  17  18
ENDBRANCH   5  17
TORSDOF 4
ENDMDL
MODEL 6
REMARK VINA RESULT:      -5.4     11.003     13.425
REMARK  Name = min_compound913.pdb
REMARK  6 active torsions:
REMARK  status: ('A' for Active; 'I' for Inactive)
REMARK    1  A    between atoms: _1  and  _2
REMARK    2  A    between atoms: _1  and  _15
REMARK    3  A    between atoms: _7  and  _8
REMARK    4  A    between atoms: _13  and  _16
REMARK    5  A    between atoms: _13  and  _17
REMARK    6  A    between atoms: _17  and  _18
REMARK                            x       y       z     vdW  Elec       q    Type
REMARK                         _______ _______ _______ _____ _____    ______ ____
ROOT
ATOM      1  N   UNL     1     -17.645   1.452  -6.450  0.00  0.00    -0.226 NA
ATOM      2  C   UNL     1     -16.857   1.087  -5.503  0.00  0.00    +0.155 C 
ATOM      3  S   UNL     1     -17.433  -0.147  -4.380  0.00  0.00    -0.088 S 
ATOM      4  C   UNL     1     -15.856  -0.173  -3.466  0.00  0.00    +0.104 C 
ATOM      5  C   UNL     1     -14.825   0.459  -4.417  0.00  0.00    +0.063 C 
ATOM      6  C   UNL     1     -13.728   1.178  -3.629  0.00  0.00    +0.035 C 
ATOM      7  N   UNL     1     -15.570   1.444  -5.204  0.00  0.00    -0.315 N 
ATOM      8  H   UNL     1     -15.044   1.864  -5.965  0.00  0.00    +0.149 HD
ENDROOT
BRANCH   1  12
ATOM      9  C   UNL     1     -16.448   4.299  -9.315  0.00  0.00    +0.120 A 
ATOM     10  C   UNL     1     -17.103   4.693  -8.145  0.00  0.00    +0.048 A 
ATOM     11  C   UNL     1     -17.484   3.745  -7.191  0.00  0.00    +0.031 A 
ATOM     12  C   UNL     1     -17.205   2.394  -7.387  0.00  0.00    +0.067 A 
ATOM     13  C   UNL     1     -16.556   2.001  -8.562  0.00  0.00    +0.031 A 
ATOM     14  C   UNL     1     -16.168   2.948  -9.517  0.00  0.00    +0.048 A 
BRANCH   9  15
ATOM     15  O   UNL     1     -16.142   5.320 -10.173  0.00  0.00    -0.495 OA
ATOM     16  C   UNL     1     -15.315   4.997 -11.283  0.00  0.00    +0.277 C 
ENDBRANCH   9  15
ENDBRANCH   1  12
BRANCH   5  17
ATOM     17  C   UNL     1     -14.209  -0.600  -5.369  0.00  0.00    +0.182 C 
BRANCH  17  18
ATOM     18  O   UNL     1     -14.497  -1.920  -4.902  0.00  0.00    -0.393 OA
ATOM     19  H   UNL     1     -14.648  -1.854  -3.942  0.00  0.00    +0.209 HD
ENDBRANCH  17  18
ENDBRANCH   5  17
TORSDOF 4
ENDMDL
MODEL 7
REMARK VINA RESULT:      -5.4      1.377      1.522
REMARK  Name = min_compound913.pdb
REMARK  6 active torsions:
REMARK  status: ('A' for Active; 'I' for Inactive)
REMARK    1  A    between atoms: _1  and  _2
REMARK    2  A    between atoms: _1  and  _15
REMARK    3  A    between atoms: _7  and  _8
REMARK    4  A    between atoms: _13  and  _16
REMARK    5  A    between atoms: _13  and  _17
REMARK    6  A    between atoms: _17  and  _18
REMARK                            x       y       z     vdW  Elec       q    Type
REMARK                         _______ _______ _______ _____ _____    ______ ____
ROOT
ATOM      1  N   UNL     1     -13.478   4.824 -16.891  0.00  0.00    -0.226 NA
ATOM      2  C   UNL     1     -13.556   5.274 -18.092  0.00  0.00    +0.155 C 
ATOM      3  S   UNL     1     -14.735   6.547 -18.420  0.00  0.00    -0.088 S 
ATOM      4  C   UNL     1     -14.222   6.688 -20.164  0.00  0.00    +0.104 C 
ATOM      5  C   UNL     1     -12.827   6.045 -20.231  0.00  0.00    +0.063 C 
ATOM      6  C   UNL     1     -12.584   5.416 -21.606  0.00  0.00    +0.035 C 
ATOM      7  N   UNL     1     -12.834   4.987 -19.218  0.00  0.00    -0.315 N 
ATOM      8  H   UNL     1     -11.933   4.545 -19.060  0.00  0.00    +0.149 HD
ENDROOT
BRANCH   1  12
ATOM      9  C   UNL     1     -10.661   1.873 -15.840  0.00  0.00    +0.120 A 
ATOM     10  C   UNL     1     -11.966   1.522 -16.197  0.00  0.00    +0.048 A 
ATOM     11  C   UNL     1     -12.892   2.504 -16.559  0.00  0.00    +0.031 A 
ATOM     12  C   UNL     1     -12.523   3.848 -16.583  0.00  0.00    +0.067 A 
ATOM     13  C   UNL     1     -11.219   4.198 -16.218  0.00  0.00    +0.031 A 
ATOM     14  C   UNL     1     -10.287   3.216 -15.860  0.00  0.00    +0.048 A 
BRANCH   9  15
ATOM     15  O   UNL     1      -9.859   0.821 -15.493  0.00  0.00    -0.495 OA
ATOM     16  C   UNL     1      -9.706  -0.212 -16.459  0.00  0.00    +0.277 C 
ENDBRANCH   9  15
ENDBRANCH   1  12
BRANCH   5  17
ATOM     17  C   UNL     1     -11.713   7.070 -19.895  0.00  0.00    +0.182 C 
BRANCH  17  18
ATOM     18  O   UNL     1     -11.085   7.536 -21.091  0.00  0.00    -0.393 OA
ATOM     19  H   UNL     1     -10.338   8.098 -20.819  0.00  0.00    +0.209 HD
ENDBRANCH  17  18
ENDBRANCH   5  17
TORSDOF 4
ENDMDL
MODEL 8
REMARK VINA RESULT:      -5.4      2.696      3.421
REMARK  Name = min_compound913.pdb
REMARK  6 active torsions:
REMARK  status: ('A' for Active; 'I' for Inactive)
REMARK    1  A    between atoms: _1  and  _2
REMARK    2  A    between atoms: _1  and  _15
REMARK    3  A    between atoms: _7  and  _8
REMARK    4  A    between atoms: _13  and  _16
REMARK    5  A    between atoms: _13  and  _17
REMARK    6  A    between atoms: _17  and  _18
REMARK                            x       y       z     vdW  Elec       q    Type
REMARK                         _______ _______ _______ _____ _____    ______ ____
ROOT
ATOM      1  N   UNL     1     -12.107   4.589 -17.675  0.00  0.00    -0.226 NA
ATOM      2  C   UNL     1     -13.108   5.113 -17.062  0.00  0.00    +0.155 C 
ATOM      3  S   UNL     1     -13.587   6.751 -17.515  0.00  0.00    -0.088 S 
ATOM      4  C   UNL     1     -14.997   6.748 -16.361  0.00  0.00    +0.104 C 
ATOM      5  C   UNL     1     -15.264   5.266 -16.047  0.00  0.00    +0.063 C 
ATOM      6  C   UNL     1     -15.832   5.103 -14.636  0.00  0.00    +0.035 C 
ATOM      7  N   UNL     1     -13.956   4.610 -16.113  0.00  0.00    -0.315 N 
ATOM      8  H   UNL     1     -13.985   3.597 -16.044  0.00  0.00    +0.149 HD
ENDROOT
BRANCH   1  12
ATOM      9  C   UNL     1     -11.082   0.620 -16.705  0.00  0.00    +0.120 A 
ATOM     10  C   UNL     1     -12.019   0.893 -17.705  0.00  0.00    +0.048 A 
ATOM     11  C   UNL     1     -12.344   2.212 -18.034  0.00  0.00    +0.031 A 
ATOM     12  C   UNL     1     -11.728   3.275 -17.376  0.00  0.00    +0.067 A 
ATOM     13  C   UNL     1     -10.796   3.000 -16.371  0.00  0.00    +0.031 A 
ATOM     14  C   UNL     1     -10.464   1.680 -16.043  0.00  0.00    +0.048 A 
BRANCH   9  15
ATOM     15  O   UNL     1     -10.865  -0.710 -16.471  0.00  0.00    -0.495 OA
ATOM     16  C   UNL     1      -9.640  -1.056 -15.836  0.00  0.00    +0.277 C 
ENDBRANCH   9  15
ENDBRANCH   1  12
BRANCH   5  17
ATOM     17  C   UNL     1     -16.212   4.627 -17.096  0.00  0.00    +0.182 C 
BRANCH  17  18
ATOM     18  O   UNL     1     -16.194   3.202 -16.981  0.00  0.00    -0.393 OA
ATOM     19  H   UNL     1     -15.565   2.982 -16.271  0.00  0.00    +0.209 HD
ENDBRANCH  17  18
ENDBRANCH   5  17
TORSDOF 4
ENDMDL
MODEL 9
REMARK VINA RESULT:      -5.3      3.954      5.761
REMARK  Name = min_compound913.pdb
REMARK  6 active torsions:
REMARK  status: ('A' for Active; 'I' for Inactive)
REMARK    1  A    between atoms: _1  and  _2
REMARK    2  A    between atoms: _1  and  _15
REMARK    3  A    between atoms: _7  and  _8
REMARK    4  A    between atoms: _13  and  _16
REMARK    5  A    between atoms: _13  and  _17
REMARK    6  A    between atoms: _17  and  _18
REMARK                            x       y       z     vdW  Elec       q    Type
REMARK                         _______ _______ _______ _____ _____    ______ ____
ROOT
ATOM      1  N   UNL     1     -15.406   3.611 -16.822  0.00  0.00    -0.226 NA
ATOM      2  C   UNL     1     -14.460   2.833 -17.213  0.00  0.00    +0.155 C 
ATOM      3  S   UNL     1     -13.990   2.897 -18.914  0.00  0.00    -0.088 S 
ATOM      4  C   UNL     1     -12.659   1.673 -18.679  0.00  0.00    +0.104 C 
ATOM      5  C   UNL     1     -12.380   1.662 -17.166  0.00  0.00    +0.063 C 
ATOM      6  C   UNL     1     -11.902   0.280 -16.712  0.00  0.00    +0.035 C 
ATOM      7  N   UNL     1     -13.665   1.955 -16.528  0.00  0.00    -0.315 N 
ATOM      8  H   UNL     1     -13.618   2.099 -15.523  0.00  0.00    +0.149 HD
ENDROOT
BRANCH   1  12
ATOM      9  C   UNL     1     -16.396   3.582 -12.728  0.00  0.00    +0.120 A 
ATOM     10  C   UNL     1     -15.471   4.499 -13.234  0.00  0.00    +0.048 A 
ATOM     11  C   UNL     1     -15.158   4.514 -14.596  0.00  0.00    +0.031 A 
ATOM     12  C   UNL     1     -15.774   3.622 -15.472  0.00  0.00    +0.067 A 
ATOM     13  C   UNL     1     -16.694   2.701 -14.963  0.00  0.00    +0.031 A 
ATOM     14  C   UNL     1     -17.015   2.687 -13.600  0.00  0.00    +0.048 A 
BRANCH   9  15
ATOM     15  O   UNL     1     -16.603   3.662 -11.378  0.00  0.00    -0.495 OA
ATOM     16  C   UNL     1     -15.774   4.564 -10.657  0.00  0.00    +0.277 C 
ENDBRANCH   9  15
ENDBRANCH   1  12
BRANCH   5  17
ATOM     17  C   UNL     1     -11.350   2.753 -16.771  0.00  0.00    +0.182 C 
BRANCH  17  18
ATOM     18  O   UNL     1     -10.145   2.152 -16.293  0.00  0.00    -0.393 OA
ATOM     19  H   UNL     1     -10.374   1.659 -15.485  0.00  0.00    +0.209 HD
ENDBRANCH  17  18
ENDBRANCH   5  17
TORSDOF 4
ENDMDL
