MODEL 1
REMARK VINA RESULT:      -7.8      0.000      0.000
REMARK  Name = min_compound995.pdb
REMARK  5 active torsions:
REMARK  status: ('A' for Active; 'I' for Inactive)
REMARK    1  A    between atoms: _6  and  _24
REMARK    2  A    between atoms: _8  and  _9
REMARK    3  A    between atoms: _12  and  _25
REMARK    4  A    between atoms: _15  and  _22
REMARK    5  A    between atoms: _19  and  _23
REMARK                            x       y       z     vdW  Elec       q    Type
REMARK                         _______ _______ _______ _____ _____    ______ ____
ROOT
ATOM      1  O   UNL     1     -14.757   4.547 -15.464  0.00  0.00    -0.483 OA
ATOM      2  C   UNL     1     -13.974   3.814 -16.324  0.00  0.00    +0.231 C 
ATOM      3  C   UNL     1     -13.795   2.480 -15.929  0.00  0.00    +0.071 C 
ATOM      4  C   UNL     1     -13.139   1.604 -16.771  0.00  0.00    +0.158 C 
ATOM      5  C   UNL     1     -12.693   2.035 -18.011  0.00  0.00    +0.158 C 
ATOM      6  C   UNL     1     -12.870   3.361 -18.405  0.00  0.00    +0.057 C 
ATOM      7  C   UNL     1     -13.457   4.306 -17.537  0.00  0.00    +0.009 C 
ATOM      8  C   UNL     1     -13.722   5.755 -17.872  0.00  0.00    +0.003 C 
ATOM      9  C   UNL     1     -14.459   6.555 -16.833  0.00  0.00    +0.025 C 
ATOM     10  C   UNL     1     -14.558   7.951 -16.816  0.00  0.00    +0.060 C 
ATOM     11  C   UNL     1     -15.257   8.593 -15.792  0.00  0.00    +0.160 C 
ATOM     12  C   UNL     1     -15.863   7.946 -14.702  0.00  0.00    +0.204 C 
ATOM     13  C   UNL     1     -15.664   6.561 -14.696  0.00  0.00    +0.157 C 
ATOM     14  O   UNL     1     -16.503   8.582 -13.796  0.00  0.00    -0.288 OA
ATOM     15  C   UNL     1     -14.958   5.883 -15.712  0.00  0.00    +0.114 C 
ENDROOT
BRANCH   8  16
ATOM     16  C   UNL     1     -13.302   6.313 -19.049  0.00  0.00    +0.025 A 
ATOM     17  C   UNL     1     -14.143   6.182 -20.267  0.00  0.00    +0.012 A 
ATOM     18  C   UNL     1     -13.653   6.554 -21.582  0.00  0.00    +0.001 A 
ATOM     19  C   UNL     1     -12.418   7.064 -21.699  0.00  0.00    +0.004 A 
ATOM     20  C   UNL     1     -11.600   7.314 -20.528  0.00  0.00    +0.046 A 
ATOM     21  C   UNL     1     -11.987   6.972 -19.287  0.00  0.00    +0.125 A 
BRANCH  21  22
ATOM     22  O   UNL     1     -11.239   7.432 -18.219  0.00  0.00    -0.506 OA
ATOM     23  H   UNL     1     -11.602   7.075 -17.390  0.00  0.00    +0.292 HD
ENDBRANCH  21  22
ENDBRANCH   8  16
BRANCH   4  24
ATOM     24  O   UNL     1     -12.967   0.303 -16.397  0.00  0.00    -0.503 OA
ATOM     25  H   UNL     1     -13.502  -0.205 -17.036  0.00  0.00    +0.292 HD
ENDBRANCH   4  24
BRANCH   5  26
ATOM     26  O   UNL     1     -12.099   1.113 -18.830  0.00  0.00    -0.503 OA
ATOM     27  H   UNL     1     -11.530   1.593 -19.456  0.00  0.00    +0.292 HD
ENDBRANCH   5  26
BRANCH  11  28
ATOM     28  O   UNL     1     -15.369   9.965 -15.823  0.00  0.00    -0.503 OA
ATOM     29  H   UNL     1     -14.429  10.185 -15.601  0.00  0.00    +0.292 HD
ENDBRANCH  11  28
TORSDOF 5
ENDMDL
MODEL 2
REMARK VINA RESULT:      -7.6      0.231      5.315
REMARK  Name = min_compound995.pdb
REMARK  5 active torsions:
REMARK  status: ('A' for Active; 'I' for Inactive)
REMARK    1  A    between atoms: _6  and  _24
REMARK    2  A    between atoms: _8  and  _9
REMARK    3  A    between atoms: _12  and  _25
REMARK    4  A    between atoms: _15  and  _22
REMARK    5  A    between atoms: _19  and  _23
REMARK                            x       y       z     vdW  Elec       q    Type
REMARK                         _______ _______ _______ _____ _____    ______ ____
ROOT
ATOM      1  O   UNL     1     -14.477   4.768 -15.420  0.00  0.00    -0.483 OA
ATOM      2  C   UNL     1     -14.843   6.046 -15.766  0.00  0.00    +0.231 C 
ATOM      3  C   UNL     1     -15.557   6.721 -14.763  0.00  0.00    +0.071 C 
ATOM      4  C   UNL     1     -15.871   8.055 -14.932  0.00  0.00    +0.158 C 
ATOM      5  C   UNL     1     -15.450   8.728 -16.069  0.00  0.00    +0.158 C 
ATOM      6  C   UNL     1     -14.740   8.060 -17.066  0.00  0.00    +0.057 C 
ATOM      7  C   UNL     1     -14.478   6.677 -16.969  0.00  0.00    +0.009 C 
ATOM      8  C   UNL     1     -13.695   5.863 -17.974  0.00  0.00    +0.003 C 
ATOM      9  C   UNL     1     -13.443   4.424 -17.614  0.00  0.00    +0.025 C 
ATOM     10  C   UNL     1     -12.996   3.441 -18.504  0.00  0.00    +0.060 C 
ATOM     11  C   UNL     1     -12.809   2.129 -18.064  0.00  0.00    +0.160 C 
ATOM     12  C   UNL     1     -13.079   1.669 -16.764  0.00  0.00    +0.204 C 
ATOM     13  C   UNL     1     -13.615   2.652 -15.926  0.00  0.00    +0.157 C 
ATOM     14  O   UNL     1     -12.877   0.457 -16.410  0.00  0.00    -0.288 OA
ATOM     15  C   UNL     1     -13.822   3.985 -16.342  0.00  0.00    +0.114 C 
ENDROOT
BRANCH   8  16
ATOM     16  C   UNL     1     -13.254   6.401 -19.152  0.00  0.00    +0.025 A 
ATOM     17  C   UNL     1     -14.084   6.270 -20.377  0.00  0.00    +0.012 A 
ATOM     18  C   UNL     1     -13.573   6.620 -21.691  0.00  0.00    +0.001 A 
ATOM     19  C   UNL     1     -12.329   7.111 -21.800  0.00  0.00    +0.004 A 
ATOM     20  C   UNL     1     -11.522   7.362 -20.623  0.00  0.00    +0.046 A 
ATOM     21  C   UNL     1     -11.927   7.039 -19.382  0.00  0.00    +0.125 A 
BRANCH  21  22
ATOM     22  O   UNL     1     -11.185   7.500 -18.311  0.00  0.00    -0.506 OA
ATOM     23  H   UNL     1     -11.773   7.934 -17.670  0.00  0.00    +0.292 HD
ENDBRANCH  21  22
ENDBRANCH   8  16
BRANCH   4  24
ATOM     24  O   UNL     1     -16.559   8.719 -13.959  0.00  0.00    -0.503 OA
ATOM     25  H   UNL     1     -16.079   9.563 -13.857  0.00  0.00    +0.292 HD
ENDBRANCH   4  24
BRANCH   5  26
ATOM     26  O   UNL     1     -15.738  10.063 -16.161  0.00  0.00    -0.503 OA
ATOM     27  H   UNL     1     -15.646  10.450 -15.274  0.00  0.00    +0.292 HD
ENDBRANCH   5  26
BRANCH  11  28
ATOM     28  O   UNL     1     -12.332   1.192 -18.954  0.00  0.00    -0.503 OA
ATOM     29  H   UNL     1     -11.391   1.179 -18.649  0.00  0.00    +0.292 HD
ENDBRANCH  11  28
TORSDOF 5
ENDMDL
MODEL 3
REMARK VINA RESULT:      -7.6      2.949      5.062
REMARK  Name = min_compound995.pdb
REMARK  5 active torsions:
REMARK  status: ('A' for Active; 'I' for Inactive)
REMARK    1  A    between atoms: _6  and  _24
REMARK    2  A    between atoms: _8  and  _9
REMARK    3  A    between atoms: _12  and  _25
REMARK    4  A    between atoms: _15  and  _22
REMARK    5  A    between atoms: _19  and  _23
REMARK                            x       y       z     vdW  Elec       q    Type
REMARK                         _______ _______ _______ _____ _____    ______ ____
ROOT
ATOM      1  O   UNL     1     -15.289   4.374 -18.524  0.00  0.00    -0.483 OA
ATOM      2  C   UNL     1     -14.742   3.446 -19.378  0.00  0.00    +0.231 C 
ATOM      3  C   UNL     1     -15.235   3.524 -20.689  0.00  0.00    +0.071 C 
ATOM      4  C   UNL     1     -14.673   2.736 -21.674  0.00  0.00    +0.158 C 
ATOM      5  C   UNL     1     -13.607   1.902 -21.373  0.00  0.00    +0.158 C 
ATOM      6  C   UNL     1     -13.116   1.823 -20.070  0.00  0.00    +0.057 C 
ATOM      7  C   UNL     1     -13.721   2.546 -19.020  0.00  0.00    +0.009 C 
ATOM      8  C   UNL     1     -13.253   2.557 -17.583  0.00  0.00    +0.003 C 
ATOM      9  C   UNL     1     -13.981   3.487 -16.652  0.00  0.00    +0.025 C 
ATOM     10  C   UNL     1     -13.902   3.449 -15.256  0.00  0.00    +0.060 C 
ATOM     11  C   UNL     1     -14.635   4.354 -14.486  0.00  0.00    +0.160 C 
ATOM     12  C   UNL     1     -15.519   5.317 -15.000  0.00  0.00    +0.204 C 
ATOM     13  C   UNL     1     -15.651   5.266 -16.392  0.00  0.00    +0.157 C 
ATOM     14  O   UNL     1     -16.158   6.132 -14.249  0.00  0.00    -0.288 OA
ATOM     15  C   UNL     1     -14.929   4.360 -17.197  0.00  0.00    +0.114 C 
ENDROOT
BRANCH   8  16
ATOM     16  C   UNL     1     -12.233   1.753 -17.150  0.00  0.00    +0.025 A 
ATOM     17  C   UNL     1     -12.482   0.306 -16.924  0.00  0.00    +0.012 A 
ATOM     18  C   UNL     1     -11.512  -0.545 -16.259  0.00  0.00    +0.001 A 
ATOM     19  C   UNL     1     -10.340  -0.020 -15.869  0.00  0.00    +0.004 A 
ATOM     20  C   UNL     1     -10.005   1.359 -16.166  0.00  0.00    +0.046 A 
ATOM     21  C   UNL     1     -10.868   2.204 -16.758  0.00  0.00    +0.125 A 
BRANCH  21  22
ATOM     22  O   UNL     1     -10.394   3.430 -17.184  0.00  0.00    -0.506 OA
ATOM     23  H   UNL     1      -9.896   3.316 -18.012  0.00  0.00    +0.292 HD
ENDBRANCH  21  22
ENDBRANCH   8  16
BRANCH   4  24
ATOM     24  O   UNL     1     -15.142   2.812 -22.953  0.00  0.00    -0.503 OA
ATOM     25  H   UNL     1     -15.635   3.655 -22.981  0.00  0.00    +0.292 HD
ENDBRANCH   4  24
BRANCH   5  26
ATOM     26  O   UNL     1     -13.051   1.185 -22.398  0.00  0.00    -0.503 OA
ATOM     27  H   UNL     1     -13.421   1.521 -23.232  0.00  0.00    +0.292 HD
ENDBRANCH   5  26
BRANCH  11  28
ATOM     28  O   UNL     1     -14.507   4.317 -13.115  0.00  0.00    -0.503 OA
ATOM     29  H   UNL     1     -13.562   4.026 -13.073  0.00  0.00    +0.292 HD
ENDBRANCH  11  28
TORSDOF 5
ENDMDL
MODEL 4
REMARK VINA RESULT:      -7.6      2.495      7.157
REMARK  Name = min_compound995.pdb
REMARK  5 active torsions:
REMARK  status: ('A' for Active; 'I' for Inactive)
REMARK    1  A    between atoms: _6  and  _24
REMARK    2  A    between atoms: _8  and  _9
REMARK    3  A    between atoms: _12  and  _25
REMARK    4  A    between atoms: _15  and  _22
REMARK    5  A    between atoms: _19  and  _23
REMARK                            x       y       z     vdW  Elec       q    Type
REMARK                         _______ _______ _______ _____ _____    ______ ____
ROOT
ATOM      1  O   UNL     1     -13.221   6.388 -17.528  0.00  0.00    -0.483 OA
ATOM      2  C   UNL     1     -14.330   7.026 -17.028  0.00  0.00    +0.231 C 
ATOM      3  C   UNL     1     -14.568   8.283 -17.604  0.00  0.00    +0.071 C 
ATOM      4  C   UNL     1     -15.723   8.970 -17.285  0.00  0.00    +0.158 C 
ATOM      5  C   UNL     1     -16.654   8.403 -16.429  0.00  0.00    +0.158 C 
ATOM      6  C   UNL     1     -16.420   7.153 -15.855  0.00  0.00    +0.057 C 
ATOM      7  C   UNL     1     -15.213   6.461 -16.088  0.00  0.00    +0.009 C 
ATOM      8  C   UNL     1     -14.869   5.094 -15.543  0.00  0.00    +0.003 C 
ATOM      9  C   UNL     1     -13.569   4.498 -16.010  0.00  0.00    +0.025 C 
ATOM     10  C   UNL     1     -12.937   3.395 -15.426  0.00  0.00    +0.060 C 
ATOM     11  C   UNL     1     -11.721   2.932 -15.933  0.00  0.00    +0.160 C 
ATOM     12  C   UNL     1     -11.017   3.521 -16.997  0.00  0.00    +0.204 C 
ATOM     13  C   UNL     1     -11.625   4.678 -17.496  0.00  0.00    +0.157 C 
ATOM     14  O   UNL     1      -9.910   3.049 -17.432  0.00  0.00    -0.288 OA
ATOM     15  C   UNL     1     -12.850   5.174 -17.001  0.00  0.00    +0.114 C 
ENDROOT
BRANCH   8  16
ATOM     16  C   UNL     1     -15.688   4.442 -14.661  0.00  0.00    +0.025 A 
ATOM     17  C   UNL     1     -15.638   4.787 -13.218  0.00  0.00    +0.012 A 
ATOM     18  C   UNL     1     -16.313   3.985 -12.213  0.00  0.00    +0.001 A 
ATOM     19  C   UNL     1     -17.033   2.921 -12.601  0.00  0.00    +0.004 A 
ATOM     20  C   UNL     1     -17.204   2.609 -14.006  0.00  0.00    +0.046 A 
ATOM     21  C   UNL     1     -16.587   3.298 -14.982  0.00  0.00    +0.125 A 
BRANCH  21  22
ATOM     22  O   UNL     1     -16.968   3.061 -16.290  0.00  0.00    -0.506 OA
ATOM     23  H   UNL     1     -16.434   3.610 -16.889  0.00  0.00    +0.292 HD
ENDBRANCH  21  22
ENDBRANCH   8  16
BRANCH   4  24
ATOM     24  O   UNL     1     -15.964  10.190 -17.847  0.00  0.00    -0.503 OA
ATOM     25  H   UNL     1     -16.886  10.393 -17.598  0.00  0.00    +0.292 HD
ENDBRANCH   4  24
BRANCH   5  26
ATOM     26  O   UNL     1     -17.807   9.100 -16.190  0.00  0.00    -0.503 OA
ATOM     27  H   UNL     1     -17.591   9.841 -15.599  0.00  0.00    +0.292 HD
ENDBRANCH   5  26
BRANCH  11  28
ATOM     28  O   UNL     1     -11.142   1.822 -15.361  0.00  0.00    -0.503 OA
ATOM     29  H   UNL     1     -11.936   1.231 -15.373  0.00  0.00    +0.292 HD
ENDBRANCH  11  28
TORSDOF 5
ENDMDL
MODEL 5
REMARK VINA RESULT:      -7.5      3.092      6.561
REMARK  Name = min_compound995.pdb
REMARK  5 active torsions:
REMARK  status: ('A' for Active; 'I' for Inactive)
REMARK    1  A    between atoms: _6  and  _24
REMARK    2  A    between atoms: _8  and  _9
REMARK    3  A    between atoms: _12  and  _25
REMARK    4  A    between atoms: _15  and  _22
REMARK    5  A    between atoms: _19  and  _23
REMARK                            x       y       z     vdW  Elec       q    Type
REMARK                         _______ _______ _______ _____ _____    ______ ____
ROOT
ATOM      1  O   UNL     1     -15.549   4.022 -18.550  0.00  0.00    -0.483 OA
ATOM      2  C   UNL     1     -15.121   4.114 -17.248  0.00  0.00    +0.231 C 
ATOM      3  C   UNL     1     -15.907   4.960 -16.451  0.00  0.00    +0.071 C 
ATOM      4  C   UNL     1     -15.662   5.038 -15.094  0.00  0.00    +0.158 C 
ATOM      5  C   UNL     1     -14.669   4.258 -14.522  0.00  0.00    +0.158 C 
ATOM      6  C   UNL     1     -13.887   3.416 -15.312  0.00  0.00    +0.057 C 
ATOM      7  C   UNL     1     -14.049   3.376 -16.713  0.00  0.00    +0.009 C 
ATOM      8  C   UNL     1     -13.278   2.482 -17.657  0.00  0.00    +0.003 C 
ATOM      9  C   UNL     1     -13.692   2.525 -19.103  0.00  0.00    +0.025 C 
ATOM     10  C   UNL     1     -12.946   2.005 -20.166  0.00  0.00    +0.060 C 
ATOM     11  C   UNL     1     -13.421   2.113 -21.475  0.00  0.00    +0.160 C 
ATOM     12  C   UNL     1     -14.610   2.762 -21.850  0.00  0.00    +0.204 C 
ATOM     13  C   UNL     1     -15.283   3.355 -20.776  0.00  0.00    +0.157 C 
ATOM     14  O   UNL     1     -15.005   2.822 -23.064  0.00  0.00    -0.288 OA
ATOM     15  C   UNL     1     -14.826   3.269 -19.444  0.00  0.00    +0.114 C 
ENDROOT
BRANCH   8  16
ATOM     16  C   UNL     1     -12.250   1.690 -17.223  0.00  0.00    +0.025 A 
ATOM     17  C   UNL     1     -12.483   0.240 -16.998  0.00  0.00    +0.012 A 
ATOM     18  C   UNL     1     -11.504  -0.600 -16.332  0.00  0.00    +0.001 A 
ATOM     19  C   UNL     1     -10.339  -0.063 -15.940  0.00  0.00    +0.004 A 
ATOM     20  C   UNL     1     -10.019   1.320 -16.237  0.00  0.00    +0.046 A 
ATOM     21  C   UNL     1     -10.890   2.155 -16.829  0.00  0.00    +0.125 A 
BRANCH  21  22
ATOM     22  O   UNL     1     -10.429   3.386 -17.255  0.00  0.00    -0.506 OA
ATOM     23  H   UNL     1     -10.511   4.032 -16.533  0.00  0.00    +0.292 HD
ENDBRANCH  21  22
ENDBRANCH   8  16
BRANCH   4  24
ATOM     24  O   UNL     1     -16.427   5.853 -14.312  0.00  0.00    -0.503 OA
ATOM     25  H   UNL     1     -16.655   5.302 -13.539  0.00  0.00    +0.292 HD
ENDBRANCH   4  24
BRANCH   5  26
ATOM     26  O   UNL     1     -14.505   4.330 -13.165  0.00  0.00    -0.503 OA
ATOM     27  H   UNL     1     -13.820   4.996 -12.983  0.00  0.00    +0.292 HD
ENDBRANCH   5  26
BRANCH  11  28
ATOM     28  O   UNL     1     -12.683   1.559 -22.497  0.00  0.00    -0.503 OA
ATOM     29  H   UNL     1     -11.838   1.425 -22.000  0.00  0.00    +0.292 HD
ENDBRANCH  11  28
TORSDOF 5
ENDMDL
MODEL 6
REMARK VINA RESULT:      -7.3     14.167     17.087
REMARK  Name = min_compound995.pdb
REMARK  5 active torsions:
REMARK  status: ('A' for Active; 'I' for Inactive)
REMARK    1  A    between atoms: _6  and  _24
REMARK    2  A    between atoms: _8  and  _9
REMARK    3  A    between atoms: _12  and  _25
REMARK    4  A    between atoms: _15  and  _22
REMARK    5  A    between atoms: _19  and  _23
REMARK                            x       y       z     vdW  Elec       q    Type
REMARK                         _______ _______ _______ _____ _____    ______ ____
ROOT
ATOM      1  O   UNL     1     -17.503  -3.590  -1.829  0.00  0.00    -0.483 OA
ATOM      2  C   UNL     1     -18.035  -2.817  -2.834  0.00  0.00    +0.231 C 
ATOM      3  C   UNL     1     -19.413  -3.003  -3.021  0.00  0.00    +0.071 C 
ATOM      4  C   UNL     1     -20.094  -2.194  -3.909  0.00  0.00    +0.158 C 
ATOM      5  C   UNL     1     -19.424  -1.183  -4.582  0.00  0.00    +0.158 C 
ATOM      6  C   UNL     1     -18.054  -0.996  -4.396  0.00  0.00    +0.057 C 
ATOM      7  C   UNL     1     -17.309  -1.859  -3.565  0.00  0.00    +0.009 C 
ATOM      8  C   UNL     1     -15.832  -1.730  -3.272  0.00  0.00    +0.003 C 
ATOM      9  C   UNL     1     -15.265  -2.696  -2.268  0.00  0.00    +0.025 C 
ATOM     10  C   UNL     1     -13.901  -2.933  -2.064  0.00  0.00    +0.060 C 
ATOM     11  C   UNL     1     -13.486  -3.867  -1.112  0.00  0.00    +0.160 C 
ATOM     12  C   UNL     1     -14.345  -4.659  -0.333  0.00  0.00    +0.204 C 
ATOM     13  C   UNL     1     -15.699  -4.470  -0.628  0.00  0.00    +0.157 C 
ATOM     14  O   UNL     1     -13.911  -5.492   0.535  0.00  0.00    -0.288 OA
ATOM     15  C   UNL     1     -16.151  -3.539  -1.588  0.00  0.00    +0.114 C 
ENDROOT
BRANCH   8  16
ATOM     16  C   UNL     1     -15.051  -0.796  -3.896  0.00  0.00    +0.025 A 
ATOM     17  C   UNL     1     -14.707   0.465  -3.191  0.00  0.00    +0.012 A 
ATOM     18  C   UNL     1     -14.075   1.580  -3.875  0.00  0.00    +0.001 A 
ATOM     19  C   UNL     1     -13.760   1.457  -5.173  0.00  0.00    +0.004 A 
ATOM     20  C   UNL     1     -13.974   0.207  -5.876  0.00  0.00    +0.046 A 
ATOM     21  C   UNL     1     -14.574  -0.853  -5.307  0.00  0.00    +0.125 A 
BRANCH  21  22
ATOM     22  O   UNL     1     -14.550  -2.058  -5.982  0.00  0.00    -0.506 OA
ATOM     23  H   UNL     1     -14.615  -1.897  -6.939  0.00  0.00    +0.292 HD
ENDBRANCH  21  22
ENDBRANCH   8  16
BRANCH   4  24
ATOM     24  O   UNL     1     -21.436  -2.365  -4.092  0.00  0.00    -0.503 OA
ATOM     25  H   UNL     1     -21.809  -2.326  -3.191  0.00  0.00    +0.292 HD
ENDBRANCH   4  24
BRANCH   5  26
ATOM     26  O   UNL     1     -20.156  -0.373  -5.407  0.00  0.00    -0.503 OA
ATOM     27  H   UNL     1     -19.618   0.410  -5.611  0.00  0.00    +0.292 HD
ENDBRANCH   5  26
BRANCH  11  28
ATOM     28  O   UNL     1     -12.136  -4.051  -0.908  0.00  0.00    -0.503 OA
ATOM     29  H   UNL     1     -12.008  -4.818  -1.520  0.00  0.00    +0.292 HD
ENDBRANCH  11  28
TORSDOF 5
ENDMDL
MODEL 7
REMARK VINA RESULT:      -7.3     14.235     16.761
REMARK  Name = min_compound995.pdb
REMARK  5 active torsions:
REMARK  status: ('A' for Active; 'I' for Inactive)
REMARK    1  A    between atoms: _6  and  _24
REMARK    2  A    between atoms: _8  and  _9
REMARK    3  A    between atoms: _12  and  _25
REMARK    4  A    between atoms: _15  and  _22
REMARK    5  A    between atoms: _19  and  _23
REMARK                            x       y       z     vdW  Elec       q    Type
REMARK                         _______ _______ _______ _____ _____    ______ ____
ROOT
ATOM      1  O   UNL     1     -17.342  -3.849  -1.970  0.00  0.00    -0.483 OA
ATOM      2  C   UNL     1     -16.010  -3.711  -1.662  0.00  0.00    +0.231 C 
ATOM      3  C   UNL     1     -15.533  -4.678  -0.765  0.00  0.00    +0.071 C 
ATOM      4  C   UNL     1     -14.184  -4.731  -0.475  0.00  0.00    +0.158 C 
ATOM      5  C   UNL     1     -13.306  -3.856  -1.096  0.00  0.00    +0.158 C 
ATOM      6  C   UNL     1     -13.778  -2.894  -1.989  0.00  0.00    +0.057 C 
ATOM      7  C   UNL     1     -15.158  -2.752  -2.242  0.00  0.00    +0.009 C 
ATOM      8  C   UNL     1     -15.774  -1.767  -3.209  0.00  0.00    +0.003 C 
ATOM      9  C   UNL     1     -17.262  -1.865  -3.404  0.00  0.00    +0.025 C 
ATOM     10  C   UNL     1     -18.056  -0.892  -4.021  0.00  0.00    +0.060 C 
ATOM     11  C   UNL     1     -19.435  -1.081  -4.136  0.00  0.00    +0.160 C 
ATOM     12  C   UNL     1     -20.141  -2.184  -3.629  0.00  0.00    +0.204 C 
ATOM     13  C   UNL     1     -19.334  -3.091  -2.934  0.00  0.00    +0.157 C 
ATOM     14  O   UNL     1     -21.406  -2.314  -3.772  0.00  0.00    -0.288 OA
ATOM     15  C   UNL     1     -17.940  -2.926  -2.795  0.00  0.00    +0.114 C 
ENDROOT
BRANCH   8  16
ATOM     16  C   UNL     1     -15.020  -0.828  -3.860  0.00  0.00    +0.025 A 
ATOM     17  C   UNL     1     -14.660   0.435  -3.167  0.00  0.00    +0.012 A 
ATOM     18  C   UNL     1     -14.059   1.553  -3.872  0.00  0.00    +0.001 A 
ATOM     19  C   UNL     1     -13.787   1.431  -5.180  0.00  0.00    +0.004 A 
ATOM     20  C   UNL     1     -14.017   0.180  -5.876  0.00  0.00    +0.046 A 
ATOM     21  C   UNL     1     -14.591  -0.883  -5.286  0.00  0.00    +0.125 A 
BRANCH  21  22
ATOM     22  O   UNL     1     -14.582  -2.089  -5.961  0.00  0.00    -0.506 OA
ATOM     23  H   UNL     1     -14.973  -2.780  -5.399  0.00  0.00    +0.292 HD
ENDBRANCH  21  22
ENDBRANCH   8  16
BRANCH   4  24
ATOM     24  O   UNL     1     -13.712  -5.673   0.392  0.00  0.00    -0.503 OA
ATOM     25  H   UNL     1     -13.035  -5.203   0.915  0.00  0.00    +0.292 HD
ENDBRANCH   4  24
BRANCH   5  26
ATOM     26  O   UNL     1     -11.972  -3.987  -0.817  0.00  0.00    -0.503 OA
ATOM     27  H   UNL     1     -11.851  -3.837   0.136  0.00  0.00    +0.292 HD
ENDBRANCH   5  26
BRANCH  11  28
ATOM     28  O   UNL     1     -20.185  -0.123  -4.781  0.00  0.00    -0.503 OA
ATOM     29  H   UNL     1     -20.242  -0.566  -5.665  0.00  0.00    +0.292 HD
ENDBRANCH  11  28
TORSDOF 5
ENDMDL
MODEL 8
REMARK VINA RESULT:      -7.2      2.501      6.752
REMARK  Name = min_compound995.pdb
REMARK  5 active torsions:
REMARK  status: ('A' for Active; 'I' for Inactive)
REMARK    1  A    between atoms: _6  and  _24
REMARK    2  A    between atoms: _8  and  _9
REMARK    3  A    between atoms: _12  and  _25
REMARK    4  A    between atoms: _15  and  _22
REMARK    5  A    between atoms: _19  and  _23
REMARK                            x       y       z     vdW  Elec       q    Type
REMARK                         _______ _______ _______ _____ _____    ______ ____
ROOT
ATOM      1  O   UNL     1     -15.754   5.781 -20.141  0.00  0.00    -0.483 OA
ATOM      2  C   UNL     1     -15.373   6.636 -19.135  0.00  0.00    +0.231 C 
ATOM      3  C   UNL     1     -16.071   7.853 -19.132  0.00  0.00    +0.071 C 
ATOM      4  C   UNL     1     -15.877   8.746 -18.097  0.00  0.00    +0.158 C 
ATOM      5  C   UNL     1     -15.025   8.423 -17.052  0.00  0.00    +0.158 C 
ATOM      6  C   UNL     1     -14.331   7.213 -17.053  0.00  0.00    +0.057 C 
ATOM      7  C   UNL     1     -14.436   6.315 -18.136  0.00  0.00    +0.009 C 
ATOM      8  C   UNL     1     -13.753   4.970 -18.225  0.00  0.00    +0.003 C 
ATOM      9  C   UNL     1     -14.095   4.128 -19.424  0.00  0.00    +0.025 C 
ATOM     10  C   UNL     1     -13.381   2.999 -19.841  0.00  0.00    +0.060 C 
ATOM     11  C   UNL     1     -13.779   2.298 -20.981  0.00  0.00    +0.160 C 
ATOM     12  C   UNL     1     -14.852   2.659 -21.814  0.00  0.00    +0.204 C 
ATOM     13  C   UNL     1     -15.484   3.845 -21.427  0.00  0.00    +0.157 C 
ATOM     14  O   UNL     1     -15.182   1.974 -22.842  0.00  0.00    -0.288 OA
ATOM     15  C   UNL     1     -15.102   4.579 -20.284  0.00  0.00    +0.114 C 
ENDROOT
BRANCH   8  16
ATOM     16  C   UNL     1     -12.862   4.548 -17.276  0.00  0.00    +0.025 A 
ATOM     17  C   UNL     1     -11.467   5.057 -17.298  0.00  0.00    +0.012 A 
ATOM     18  C   UNL     1     -10.427   4.483 -16.463  0.00  0.00    +0.001 A 
ATOM     19  C   UNL     1     -10.741   3.487 -15.620  0.00  0.00    +0.004 A 
ATOM     20  C   UNL     1     -12.110   3.032 -15.481  0.00  0.00    +0.046 A 
ATOM     21  C   UNL     1     -13.113   3.506 -16.240  0.00  0.00    +0.125 A 
BRANCH  21  22
ATOM     22  O   UNL     1     -14.408   3.165 -15.900  0.00  0.00    -0.506 OA
ATOM     23  H   UNL     1     -15.024   3.526 -16.560  0.00  0.00    +0.292 HD
ENDBRANCH  21  22
ENDBRANCH   8  16
BRANCH   4  24
ATOM     24  O   UNL     1     -16.557   9.929 -18.084  0.00  0.00    -0.503 OA
ATOM     25  H   UNL     1     -16.294  10.369 -18.915  0.00  0.00    +0.292 HD
ENDBRANCH   4  24
BRANCH   5  26
ATOM     26  O   UNL     1     -14.912   9.318 -16.023  0.00  0.00    -0.503 OA
ATOM     27  H   UNL     1     -14.729   8.817 -15.210  0.00  0.00    +0.292 HD
ENDBRANCH   5  26
BRANCH  11  28
ATOM     28  O   UNL     1     -13.080   1.169 -21.345  0.00  0.00    -0.503 OA
ATOM     29  H   UNL     1     -13.105   1.302 -22.326  0.00  0.00    +0.292 HD
ENDBRANCH  11  28
TORSDOF 5
ENDMDL
MODEL 9
REMARK VINA RESULT:      -7.1      2.526      5.077
REMARK  Name = min_compound995.pdb
REMARK  5 active torsions:
REMARK  status: ('A' for Active; 'I' for Inactive)
REMARK    1  A    between atoms: _6  and  _24
REMARK    2  A    between atoms: _8  and  _9
REMARK    3  A    between atoms: _12  and  _25
REMARK    4  A    between atoms: _15  and  _22
REMARK    5  A    between atoms: _19  and  _23
REMARK                            x       y       z     vdW  Elec       q    Type
REMARK                         _______ _______ _______ _____ _____    ______ ____
ROOT
ATOM      1  O   UNL     1     -13.118   6.301 -17.267  0.00  0.00    -0.483 OA
ATOM      2  C   UNL     1     -12.764   5.038 -16.856  0.00  0.00    +0.231 C 
ATOM      3  C   UNL     1     -11.564   4.576 -17.418  0.00  0.00    +0.071 C 
ATOM      4  C   UNL     1     -11.029   3.377 -16.989  0.00  0.00    +0.158 C 
ATOM      5  C   UNL     1     -11.657   2.657 -15.984  0.00  0.00    +0.158 C 
ATOM      6  C   UNL     1     -12.850   3.115 -15.423  0.00  0.00    +0.057 C 
ATOM      7  C   UNL     1     -13.472   4.289 -15.898  0.00  0.00    +0.009 C 
ATOM      8  C   UNL     1     -14.744   4.889 -15.345  0.00  0.00    +0.003 C 
ATOM      9  C   UNL     1     -15.169   6.207 -15.931  0.00  0.00    +0.025 C 
ATOM     10  C   UNL     1     -16.433   6.786 -15.770  0.00  0.00    +0.060 C 
ATOM     11  C   UNL     1     -16.725   8.011 -16.373  0.00  0.00    +0.160 C 
ATOM     12  C   UNL     1     -15.846   8.733 -17.199  0.00  0.00    +0.204 C 
ATOM     13  C   UNL     1     -14.627   8.081 -17.418  0.00  0.00    +0.157 C 
ATOM     14  O   UNL     1     -16.160   9.859 -17.717  0.00  0.00    -0.288 OA
ATOM     15  C   UNL     1     -14.304   6.841 -16.829  0.00  0.00    +0.114 C 
ENDROOT
BRANCH   8  16
ATOM     16  C   UNL     1     -15.477   4.259 -14.375  0.00  0.00    +0.025 A 
ATOM     17  C   UNL     1     -16.446   3.200 -14.757  0.00  0.00    +0.012 A 
ATOM     18  C   UNL     1     -17.402   2.657 -13.809  0.00  0.00    +0.001 A 
ATOM     19  C   UNL     1     -17.390   3.098 -12.542  0.00  0.00    +0.004 A 
ATOM     20  C   UNL     1     -16.392   4.048 -12.094  0.00  0.00    +0.046 A 
ATOM     21  C   UNL     1     -15.494   4.605 -12.926  0.00  0.00    +0.125 A 
BRANCH  21  22
ATOM     22  O   UNL     1     -14.459   5.337 -12.376  0.00  0.00    -0.506 OA
ATOM     23  H   UNL     1     -14.036   4.822 -11.668  0.00  0.00    +0.292 HD
ENDBRANCH  21  22
ENDBRANCH   8  16
BRANCH   4  24
ATOM     24  O   UNL     1      -9.859   2.925 -17.526  0.00  0.00    -0.503 OA
ATOM     25  H   UNL     1      -9.176   3.508 -17.143  0.00  0.00    +0.292 HD
ENDBRANCH   4  24
BRANCH   5  26
ATOM     26  O   UNL     1     -11.056   1.505 -15.556  0.00  0.00    -0.503 OA
ATOM     27  H   UNL     1     -10.118   1.702 -15.389  0.00  0.00    +0.292 HD
ENDBRANCH   5  26
BRANCH  11  28
ATOM     28  O   UNL     1     -17.964   8.575 -16.166  0.00  0.00    -0.503 OA
ATOM     29  H   UNL     1     -17.830   9.401 -16.694  0.00  0.00    +0.292 HD
ENDBRANCH  11  28
TORSDOF 5
ENDMDL
