MODEL 1
REMARK VINA RESULT:      -7.5      0.000      0.000
REMARK  Name = min_compound992.pdb
REMARK  8 active torsions:
REMARK  status: ('A' for Active; 'I' for Inactive)
REMARK    1  A    between atoms: _1  and  _2
REMARK    2  A    between atoms: _1  and  _18
REMARK    3  A    between atoms: _2  and  _7
REMARK    4  A    between atoms: _3  and  _4
REMARK    5  A    between atoms: _3  and  _6
REMARK    6  A    between atoms: _4  and  _12
REMARK    7  A    between atoms: _5  and  _24
REMARK    8  A    between atoms: _9  and  _23
REMARK                            x       y       z     vdW  Elec       q    Type
REMARK                         _______ _______ _______ _____ _____    ______ ____
ROOT
ATOM      1  C   UNL     1     -12.759   5.674 -19.291  0.00  0.00    +0.130 A 
ATOM      2  C   UNL     1     -11.954   6.323 -18.337  0.00  0.00    +0.143 A 
ATOM      3  C   UNL     1     -11.534   5.685 -17.175  0.00  0.00    +0.049 A 
ATOM      4  C   UNL     1     -11.907   4.361 -16.950  0.00  0.00    +0.032 A 
ATOM      5  C   UNL     1     -12.681   3.666 -17.891  0.00  0.00    +0.088 A 
ATOM      6  C   UNL     1     -13.105   4.336 -19.054  0.00  0.00    +0.165 A 
ENDROOT
BRANCH   2   7
ATOM      7  O   UNL     1     -11.549   7.620 -18.520  0.00  0.00    -0.505 OA
ATOM      8  H   UNL     1     -10.575   7.604 -18.427  0.00  0.00    +0.292 HD
ENDBRANCH   2   7
BRANCH   1   9
ATOM      9  N   UNL     1     -13.152   6.326 -20.482  0.00  0.00    -0.260 N 
ATOM     10  H   UNL     1     -13.986   6.837 -20.590  0.00  0.00    +0.170 HD
BRANCH   9  11
ATOM     11  N   UNL     1     -12.296   6.164 -21.381  0.00  0.00    -0.266 N 
ATOM     12  H   UNL     1     -11.824   5.318 -21.554  0.00  0.00    +0.170 HD
BRANCH  11  13
ATOM     13  C   UNL     1     -12.096   7.351 -22.112  0.00  0.00    +0.044 A 
ATOM     14  C   UNL     1     -10.831   7.952 -22.095  0.00  0.00    +0.024 A 
ATOM     15  C   UNL     1     -10.597   9.145 -22.784  0.00  0.00    +0.002 A 
ATOM     16  C   UNL     1     -11.633   9.754 -23.489  0.00  0.00    +0.000 A 
ATOM     17  C   UNL     1     -12.902   9.176 -23.502  0.00  0.00    +0.002 A 
ATOM     18  C   UNL     1     -13.132   7.982 -22.813  0.00  0.00    +0.024 A 
ENDBRANCH  11  13
ENDBRANCH   9  11
ENDBRANCH   1   9
BRANCH   6  19
ATOM     19  O   UNL     1     -13.871   3.664 -19.979  0.00  0.00    -0.503 OA
ATOM     20  H   UNL     1     -14.370   2.985 -19.486  0.00  0.00    +0.292 HD
ENDBRANCH   6  19
BRANCH   5  21
ATOM     21  N   UNL     1     -13.081   2.332 -17.663  0.00  0.00    -0.263 N 
ATOM     22  H   UNL     1     -13.784   2.055 -17.031  0.00  0.00    +0.170 HD
BRANCH  21  23
ATOM     23  N   UNL     1     -12.415   1.551 -18.380  0.00  0.00    -0.266 N 
ATOM     24  H   UNL     1     -12.490   1.495 -19.360  0.00  0.00    +0.170 HD
BRANCH  23  25
ATOM     25  C   UNL     1     -11.547   0.765 -17.601  0.00  0.00    +0.044 A 
ATOM     26  C   UNL     1     -10.164   0.941 -17.736  0.00  0.00    +0.024 A 
ATOM     27  C   UNL     1      -9.269   0.155 -17.007  0.00  0.00    +0.002 A 
ATOM     28  C   UNL     1      -9.751  -0.824 -16.140  0.00  0.00    +0.000 A 
ATOM     29  C   UNL     1     -11.125  -1.020 -16.005  0.00  0.00    +0.002 A 
ATOM     30  C   UNL     1     -12.018  -0.233 -16.736  0.00  0.00    +0.024 A 
ENDBRANCH  23  25
ENDBRANCH  21  23
ENDBRANCH   5  21
TORSDOF 8
ENDMDL
MODEL 2
REMARK VINA RESULT:      -7.4      4.195      7.598
REMARK  Name = min_compound992.pdb
REMARK  8 active torsions:
REMARK  status: ('A' for Active; 'I' for Inactive)
REMARK    1  A    between atoms: _1  and  _2
REMARK    2  A    between atoms: _1  and  _18
REMARK    3  A    between atoms: _2  and  _7
REMARK    4  A    between atoms: _3  and  _4
REMARK    5  A    between atoms: _3  and  _6
REMARK    6  A    between atoms: _4  and  _12
REMARK    7  A    between atoms: _5  and  _24
REMARK    8  A    between atoms: _9  and  _23
REMARK                            x       y       z     vdW  Elec       q    Type
REMARK                         _______ _______ _______ _____ _____    ______ ____
ROOT
ATOM      1  C   UNL     1     -13.634   3.069 -18.022  0.00  0.00    +0.130 A 
ATOM      2  C   UNL     1     -14.485   3.234 -19.129  0.00  0.00    +0.143 A 
ATOM      3  C   UNL     1     -15.758   3.779 -19.001  0.00  0.00    +0.049 A 
ATOM      4  C   UNL     1     -16.204   4.186 -17.746  0.00  0.00    +0.032 A 
ATOM      5  C   UNL     1     -15.375   4.070 -16.620  0.00  0.00    +0.088 A 
ATOM      6  C   UNL     1     -14.095   3.505 -16.771  0.00  0.00    +0.165 A 
ENDROOT
BRANCH   2   7
ATOM      7  O   UNL     1     -14.087   2.862 -20.388  0.00  0.00    -0.505 OA
ATOM      8  H   UNL     1     -14.876   2.462 -20.803  0.00  0.00    +0.292 HD
ENDBRANCH   2   7
BRANCH   1   9
ATOM      9  N   UNL     1     -12.331   2.541 -18.172  0.00  0.00    -0.260 N 
ATOM     10  H   UNL     1     -11.502   3.065 -18.083  0.00  0.00    +0.170 HD
BRANCH   9  11
ATOM     11  N   UNL     1     -12.374   1.318 -18.433  0.00  0.00    -0.266 N 
ATOM     12  H   UNL     1     -12.946   0.917 -19.126  0.00  0.00    +0.170 HD
BRANCH  11  13
ATOM     13  C   UNL     1     -11.498   0.589 -17.605  0.00  0.00    +0.044 A 
ATOM     14  C   UNL     1     -10.117   0.775 -17.751  0.00  0.00    +0.024 A 
ATOM     15  C   UNL     1      -9.213   0.052 -16.968  0.00  0.00    +0.002 A 
ATOM     16  C   UNL     1      -9.683  -0.874 -16.039  0.00  0.00    +0.000 A 
ATOM     17  C   UNL     1     -11.055  -1.080 -15.894  0.00  0.00    +0.002 A 
ATOM     18  C   UNL     1     -11.957  -0.354 -16.677  0.00  0.00    +0.024 A 
ENDBRANCH  11  13
ENDBRANCH   9  11
ENDBRANCH   1   9
BRANCH   6  19
ATOM     19  O   UNL     1     -13.277   3.380 -15.670  0.00  0.00    -0.503 OA
ATOM     20  H   UNL     1     -13.785   2.882 -15.003  0.00  0.00    +0.292 HD
ENDBRANCH   6  19
BRANCH   5  21
ATOM     21  N   UNL     1     -15.824   4.461 -15.340  0.00  0.00    -0.263 N 
ATOM     22  H   UNL     1     -15.806   5.383 -14.995  0.00  0.00    +0.170 HD
BRANCH  21  23
ATOM     23  N   UNL     1     -16.248   3.467 -14.707  0.00  0.00    -0.266 N 
ATOM     24  H   UNL     1     -16.618   2.657 -15.126  0.00  0.00    +0.170 HD
BRANCH  23  25
ATOM     25  C   UNL     1     -16.126   3.662 -13.319  0.00  0.00    +0.044 A 
ATOM     26  C   UNL     1     -17.055   3.054 -12.464  0.00  0.00    +0.024 A 
ATOM     27  C   UNL     1     -16.989   3.253 -11.083  0.00  0.00    +0.002 A 
ATOM     28  C   UNL     1     -15.997   4.070 -10.544  0.00  0.00    +0.000 A 
ATOM     29  C   UNL     1     -15.074   4.692 -11.384  0.00  0.00    +0.002 A 
ATOM     30  C   UNL     1     -15.143   4.492 -12.765  0.00  0.00    +0.024 A 
ENDBRANCH  23  25
ENDBRANCH  21  23
ENDBRANCH   5  21
TORSDOF 8
ENDMDL
MODEL 3
REMARK VINA RESULT:      -7.4      3.896      6.678
REMARK  Name = min_compound992.pdb
REMARK  8 active torsions:
REMARK  status: ('A' for Active; 'I' for Inactive)
REMARK    1  A    between atoms: _1  and  _2
REMARK    2  A    between atoms: _1  and  _18
REMARK    3  A    between atoms: _2  and  _7
REMARK    4  A    between atoms: _3  and  _4
REMARK    5  A    between atoms: _3  and  _6
REMARK    6  A    between atoms: _4  and  _12
REMARK    7  A    between atoms: _5  and  _24
REMARK    8  A    between atoms: _9  and  _23
REMARK                            x       y       z     vdW  Elec       q    Type
REMARK                         _______ _______ _______ _____ _____    ______ ____
ROOT
ATOM      1  C   UNL     1     -14.447   5.549 -16.321  0.00  0.00    +0.130 A 
ATOM      2  C   UNL     1     -14.125   6.724 -17.026  0.00  0.00    +0.143 A 
ATOM      3  C   UNL     1     -12.920   6.866 -17.704  0.00  0.00    +0.049 A 
ATOM      4  C   UNL     1     -12.005   5.814 -17.699  0.00  0.00    +0.032 A 
ATOM      5  C   UNL     1     -12.300   4.613 -17.037  0.00  0.00    +0.088 A 
ATOM      6  C   UNL     1     -13.521   4.496 -16.348  0.00  0.00    +0.165 A 
ENDROOT
BRANCH   2   7
ATOM      7  O   UNL     1     -14.998   7.780 -17.072  0.00  0.00    -0.505 OA
ATOM      8  H   UNL     1     -14.710   8.387 -16.361  0.00  0.00    +0.292 HD
ENDBRANCH   2   7
BRANCH   1   9
ATOM      9  N   UNL     1     -15.689   5.407 -15.662  0.00  0.00    -0.260 N 
ATOM     10  H   UNL     1     -16.486   4.984 -16.055  0.00  0.00    +0.170 HD
BRANCH   9  11
ATOM     11  N   UNL     1     -15.639   5.894 -14.509  0.00  0.00    -0.266 N 
ATOM     12  H   UNL     1     -15.314   6.799 -14.301  0.00  0.00    +0.170 HD
BRANCH  11  13
ATOM     13  C   UNL     1     -16.108   4.976 -13.549  0.00  0.00    +0.044 A 
ATOM     14  C   UNL     1     -15.644   5.078 -12.232  0.00  0.00    +0.024 A 
ATOM     15  C   UNL     1     -16.062   4.170 -11.255  0.00  0.00    +0.002 A 
ATOM     16  C   UNL     1     -16.942   3.144 -11.592  0.00  0.00    +0.000 A 
ATOM     17  C   UNL     1     -17.400   3.020 -12.903  0.00  0.00    +0.002 A 
ATOM     18  C   UNL     1     -16.981   3.930 -13.877  0.00  0.00    +0.024 A 
ENDBRANCH  11  13
ENDBRANCH   9  11
ENDBRANCH   1   9
BRANCH   6  19
ATOM     19  O   UNL     1     -13.815   3.323 -15.688  0.00  0.00    -0.503 OA
ATOM     20  H   UNL     1     -14.783   3.310 -15.565  0.00  0.00    +0.292 HD
ENDBRANCH   6  19
BRANCH   5  21
ATOM     21  N   UNL     1     -11.372   3.549 -17.009  0.00  0.00    -0.263 N 
ATOM     22  H   UNL     1     -10.520   3.559 -16.517  0.00  0.00    +0.170 HD
BRANCH  21  23
ATOM     23  N   UNL     1     -11.789   2.592 -17.701  0.00  0.00    -0.266 N 
ATOM     24  H   UNL     1     -12.440   2.678 -18.434  0.00  0.00    +0.170 HD
BRANCH  23  25
ATOM     25  C   UNL     1     -11.205   1.380 -17.292  0.00  0.00    +0.044 A 
ATOM     26  C   UNL     1      -9.832   1.185 -17.492  0.00  0.00    +0.024 A 
ATOM     27  C   UNL     1      -9.221  -0.018 -17.133  0.00  0.00    +0.002 A 
ATOM     28  C   UNL     1      -9.983  -1.045 -16.577  0.00  0.00    +0.000 A 
ATOM     29  C   UNL     1     -11.352  -0.871 -16.384  0.00  0.00    +0.002 A 
ATOM     30  C   UNL     1     -11.961   0.334 -16.745  0.00  0.00    +0.024 A 
ENDBRANCH  23  25
ENDBRANCH  21  23
ENDBRANCH   5  21
TORSDOF 8
ENDMDL
MODEL 4
REMARK VINA RESULT:      -7.3      4.064      7.408
REMARK  Name = min_compound992.pdb
REMARK  8 active torsions:
REMARK  status: ('A' for Active; 'I' for Inactive)
REMARK    1  A    between atoms: _1  and  _2
REMARK    2  A    between atoms: _1  and  _18
REMARK    3  A    between atoms: _2  and  _7
REMARK    4  A    between atoms: _3  and  _4
REMARK    5  A    between atoms: _3  and  _6
REMARK    6  A    between atoms: _4  and  _12
REMARK    7  A    between atoms: _5  and  _24
REMARK    8  A    between atoms: _9  and  _23
REMARK                            x       y       z     vdW  Elec       q    Type
REMARK                         _______ _______ _______ _____ _____    ______ ____
ROOT
ATOM      1  C   UNL     1     -12.675   4.342 -17.287  0.00  0.00    +0.130 A 
ATOM      2  C   UNL     1     -12.783   5.512 -18.062  0.00  0.00    +0.143 A 
ATOM      3  C   UNL     1     -13.749   6.477 -17.804  0.00  0.00    +0.049 A 
ATOM      4  C   UNL     1     -14.631   6.294 -16.741  0.00  0.00    +0.032 A 
ATOM      5  C   UNL     1     -14.538   5.158 -15.922  0.00  0.00    +0.088 A 
ATOM      6  C   UNL     1     -13.560   4.189 -16.210  0.00  0.00    +0.165 A 
ENDROOT
BRANCH   2   7
ATOM      7  O   UNL     1     -11.929   5.745 -19.110  0.00  0.00    -0.505 OA
ATOM      8  H   UNL     1     -11.068   5.372 -18.831  0.00  0.00    +0.292 HD
ENDBRANCH   2   7
BRANCH   1   9
ATOM      9  N   UNL     1     -11.668   3.384 -17.543  0.00  0.00    -0.260 N 
ATOM     10  H   UNL     1     -10.702   3.552 -17.459  0.00  0.00    +0.170 HD
BRANCH   9  11
ATOM     11  N   UNL     1     -12.172   2.292 -17.890  0.00  0.00    -0.266 N 
ATOM     12  H   UNL     1     -13.009   2.203 -18.400  0.00  0.00    +0.170 HD
BRANCH  11  13
ATOM     13  C   UNL     1     -11.385   1.207 -17.456  0.00  0.00    +0.044 A 
ATOM     14  C   UNL     1     -12.006   0.142 -16.792  0.00  0.00    +0.024 A 
ATOM     15  C   UNL     1     -11.257  -0.939 -16.321  0.00  0.00    +0.002 A 
ATOM     16  C   UNL     1      -9.876  -0.959 -16.501  0.00  0.00    +0.000 A 
ATOM     17  C   UNL     1      -9.242   0.102 -17.146  0.00  0.00    +0.002 A 
ATOM     18  C   UNL     1      -9.993   1.182 -17.617  0.00  0.00    +0.024 A 
ENDBRANCH  11  13
ENDBRANCH   9  11
ENDBRANCH   1   9
BRANCH   6  19
ATOM     19  O   UNL     1     -13.466   3.067 -15.416  0.00  0.00    -0.503 OA
ATOM     20  H   UNL     1     -12.642   3.160 -14.902  0.00  0.00    +0.292 HD
ENDBRANCH   6  19
BRANCH   5  21
ATOM     21  N   UNL     1     -15.439   4.953 -14.855  0.00  0.00    -0.263 N 
ATOM     22  H   UNL     1     -16.387   4.710 -14.958  0.00  0.00    +0.170 HD
BRANCH  21  23
ATOM     23  N   UNL     1     -14.859   5.124 -13.759  0.00  0.00    -0.266 N 
ATOM     24  H   UNL     1     -14.039   5.655 -13.640  0.00  0.00    +0.170 HD
BRANCH  23  25
ATOM     25  C   UNL     1     -15.533   4.456 -12.720  0.00  0.00    +0.044 A 
ATOM     26  C   UNL     1     -16.596   3.602 -13.038  0.00  0.00    +0.024 A 
ATOM     27  C   UNL     1     -17.314   2.949 -12.033  0.00  0.00    +0.002 A 
ATOM     28  C   UNL     1     -16.978   3.153 -10.696  0.00  0.00    +0.000 A 
ATOM     29  C   UNL     1     -15.931   4.011 -10.363  0.00  0.00    +0.002 A 
ATOM     30  C   UNL     1     -15.216   4.663 -11.371  0.00  0.00    +0.024 A 
ENDBRANCH  23  25
ENDBRANCH  21  23
ENDBRANCH   5  21
TORSDOF 8
ENDMDL
MODEL 5
REMARK VINA RESULT:      -7.3      1.300      7.684
REMARK  Name = min_compound992.pdb
REMARK  8 active torsions:
REMARK  status: ('A' for Active; 'I' for Inactive)
REMARK    1  A    between atoms: _1  and  _2
REMARK    2  A    between atoms: _1  and  _18
REMARK    3  A    between atoms: _2  and  _7
REMARK    4  A    between atoms: _3  and  _4
REMARK    5  A    between atoms: _3  and  _6
REMARK    6  A    between atoms: _4  and  _12
REMARK    7  A    between atoms: _5  and  _24
REMARK    8  A    between atoms: _9  and  _23
REMARK                            x       y       z     vdW  Elec       q    Type
REMARK                         _______ _______ _______ _____ _____    ______ ____
ROOT
ATOM      1  C   UNL     1     -12.689   3.492 -17.952  0.00  0.00    +0.130 A 
ATOM      2  C   UNL     1     -11.977   4.226 -16.985  0.00  0.00    +0.143 A 
ATOM      3  C   UNL     1     -11.598   5.546 -17.199  0.00  0.00    +0.049 A 
ATOM      4  C   UNL     1     -11.941   6.170 -18.396  0.00  0.00    +0.032 A 
ATOM      5  C   UNL     1     -12.680   5.486 -19.374  0.00  0.00    +0.088 A 
ATOM      6  C   UNL     1     -13.042   4.147 -19.141  0.00  0.00    +0.165 A 
ENDROOT
BRANCH   2   7
ATOM      7  O   UNL     1     -11.629   3.660 -15.785  0.00  0.00    -0.505 OA
ATOM      8  H   UNL     1     -11.682   4.385 -15.131  0.00  0.00    +0.292 HD
ENDBRANCH   2   7
BRANCH   1   9
ATOM      9  N   UNL     1     -13.095   2.160 -17.708  0.00  0.00    -0.260 N 
ATOM     10  H   UNL     1     -13.807   1.897 -17.081  0.00  0.00    +0.170 HD
BRANCH   9  11
ATOM     11  N   UNL     1     -12.425   1.359 -18.399  0.00  0.00    -0.266 N 
ATOM     12  H   UNL     1     -12.512   1.257 -19.374  0.00  0.00    +0.170 HD
BRANCH  11  13
ATOM     13  C   UNL     1     -11.530   0.622 -17.599  0.00  0.00    +0.044 A 
ATOM     14  C   UNL     1     -10.154   0.824 -17.761  0.00  0.00    +0.024 A 
ATOM     15  C   UNL     1      -9.232   0.093 -17.006  0.00  0.00    +0.002 A 
ATOM     16  C   UNL     1      -9.680  -0.856 -16.090  0.00  0.00    +0.000 A 
ATOM     17  C   UNL     1     -11.047  -1.078 -15.929  0.00  0.00    +0.002 A 
ATOM     18  C   UNL     1     -11.967  -0.345 -16.684  0.00  0.00    +0.024 A 
ENDBRANCH  11  13
ENDBRANCH   9  11
ENDBRANCH   1   9
BRANCH   6  19
ATOM     19  O   UNL     1     -13.760   3.465 -20.098  0.00  0.00    -0.503 OA
ATOM     20  H   UNL     1     -14.687   3.757 -20.009  0.00  0.00    +0.292 HD
ENDBRANCH   6  19
BRANCH   5  21
ATOM     21  N   UNL     1     -13.015   6.103 -20.598  0.00  0.00    -0.263 N 
ATOM     22  H   UNL     1     -13.587   6.899 -20.690  0.00  0.00    +0.170 HD
BRANCH  21  23
ATOM     23  N   UNL     1     -12.480   5.492 -21.552  0.00  0.00    -0.266 N 
ATOM     24  H   UNL     1     -12.651   4.549 -21.774  0.00  0.00    +0.170 HD
BRANCH  23  25
ATOM     25  C   UNL     1     -11.602   6.332 -22.262  0.00  0.00    +0.044 A 
ATOM     26  C   UNL     1     -11.395   7.640 -21.806  0.00  0.00    +0.024 A 
ATOM     27  C   UNL     1     -10.560   8.515 -22.504  0.00  0.00    +0.002 A 
ATOM     28  C   UNL     1      -9.929   8.091 -23.672  0.00  0.00    +0.000 A 
ATOM     29  C   UNL     1     -10.136   6.796 -24.145  0.00  0.00    +0.002 A 
ATOM     30  C   UNL     1     -10.974   5.923 -23.446  0.00  0.00    +0.024 A 
ENDBRANCH  23  25
ENDBRANCH  21  23
ENDBRANCH   5  21
TORSDOF 8
ENDMDL
MODEL 6
REMARK VINA RESULT:      -7.0     10.552     12.386
REMARK  Name = min_compound992.pdb
REMARK  8 active torsions:
REMARK  status: ('A' for Active; 'I' for Inactive)
REMARK    1  A    between atoms: _1  and  _2
REMARK    2  A    between atoms: _1  and  _18
REMARK    3  A    between atoms: _2  and  _7
REMARK    4  A    between atoms: _3  and  _4
REMARK    5  A    between atoms: _3  and  _6
REMARK    6  A    between atoms: _4  and  _12
REMARK    7  A    between atoms: _5  and  _24
REMARK    8  A    between atoms: _9  and  _23
REMARK                            x       y       z     vdW  Elec       q    Type
REMARK                         _______ _______ _______ _____ _____    ______ ____
ROOT
ATOM      1  C   UNL     1     -16.702   4.437  -8.799  0.00  0.00    +0.130 A 
ATOM      2  C   UNL     1     -17.067   5.664  -8.216  0.00  0.00    +0.143 A 
ATOM      3  C   UNL     1     -17.510   5.749  -6.901  0.00  0.00    +0.049 A 
ATOM      4  C   UNL     1     -17.585   4.591  -6.129  0.00  0.00    +0.032 A 
ATOM      5  C   UNL     1     -17.199   3.351  -6.660  0.00  0.00    +0.088 A 
ATOM      6  C   UNL     1     -16.765   3.287  -7.997  0.00  0.00    +0.165 A 
ENDROOT
BRANCH   2   7
ATOM      7  O   UNL     1     -16.997   6.832  -8.931  0.00  0.00    -0.505 OA
ATOM      8  H   UNL     1     -17.038   7.547  -8.265  0.00  0.00    +0.292 HD
ENDBRANCH   2   7
BRANCH   1   9
ATOM      9  N   UNL     1     -16.224   4.370 -10.127  0.00  0.00    -0.260 N 
ATOM     10  H   UNL     1     -15.338   4.683 -10.420  0.00  0.00    +0.170 HD
BRANCH   9  11
ATOM     11  N   UNL     1     -17.081   3.857 -10.882  0.00  0.00    -0.266 N 
ATOM     12  H   UNL     1     -18.001   3.638 -10.611  0.00  0.00    +0.170 HD
BRANCH  11  13
ATOM     13  C   UNL     1     -16.556   3.634 -12.170  0.00  0.00    +0.044 A 
ATOM     14  C   UNL     1     -15.415   4.342 -12.568  0.00  0.00    +0.024 A 
ATOM     15  C   UNL     1     -14.879   4.171 -13.847  0.00  0.00    +0.002 A 
ATOM     16  C   UNL     1     -15.488   3.297 -14.745  0.00  0.00    +0.000 A 
ATOM     17  C   UNL     1     -16.633   2.597 -14.368  0.00  0.00    +0.002 A 
ATOM     18  C   UNL     1     -17.166   2.769 -13.088  0.00  0.00    +0.024 A 
ENDBRANCH  11  13
ENDBRANCH   9  11
ENDBRANCH   1   9
BRANCH   6  19
ATOM     19  O   UNL     1     -16.391   2.073  -8.529  0.00  0.00    -0.503 OA
ATOM     20  H   UNL     1     -17.060   1.848  -9.202  0.00  0.00    +0.292 HD
ENDBRANCH   6  19
BRANCH   5  21
ATOM     21  N   UNL     1     -17.290   2.170  -5.893  0.00  0.00    -0.263 N 
ATOM     22  H   UNL     1     -17.459   1.272  -6.260  0.00  0.00    +0.170 HD
BRANCH  21  23
ATOM     23  N   UNL     1     -17.124   2.427  -4.679  0.00  0.00    -0.266 N 
ATOM     24  H   UNL     1     -17.768   2.921  -4.122  0.00  0.00    +0.170 HD
BRANCH  23  25
ATOM     25  C   UNL     1     -15.897   1.918  -4.216  0.00  0.00    +0.044 A 
ATOM     26  C   UNL     1     -15.793   0.551  -3.929  0.00  0.00    +0.024 A 
ATOM     27  C   UNL     1     -14.603   0.013  -3.434  0.00  0.00    +0.002 A 
ATOM     28  C   UNL     1     -13.506   0.843  -3.212  0.00  0.00    +0.000 A 
ATOM     29  C   UNL     1     -13.598   2.208  -3.480  0.00  0.00    +0.002 A 
ATOM     30  C   UNL     1     -14.790   2.743  -3.974  0.00  0.00    +0.024 A 
ENDBRANCH  23  25
ENDBRANCH  21  23
ENDBRANCH   5  21
TORSDOF 8
ENDMDL
MODEL 7
REMARK VINA RESULT:      -6.9      3.745      4.830
REMARK  Name = min_compound992.pdb
REMARK  8 active torsions:
REMARK  status: ('A' for Active; 'I' for Inactive)
REMARK    1  A    between atoms: _1  and  _2
REMARK    2  A    between atoms: _1  and  _18
REMARK    3  A    between atoms: _2  and  _7
REMARK    4  A    between atoms: _3  and  _4
REMARK    5  A    between atoms: _3  and  _6
REMARK    6  A    between atoms: _4  and  _12
REMARK    7  A    between atoms: _5  and  _24
REMARK    8  A    between atoms: _9  and  _23
REMARK                            x       y       z     vdW  Elec       q    Type
REMARK                         _______ _______ _______ _____ _____    ______ ____
ROOT
ATOM      1  C   UNL     1     -14.523   5.649 -16.796  0.00  0.00    +0.130 A 
ATOM      2  C   UNL     1     -15.123   5.167 -15.619  0.00  0.00    +0.143 A 
ATOM      3  C   UNL     1     -14.562   4.131 -14.880  0.00  0.00    +0.049 A 
ATOM      4  C   UNL     1     -13.365   3.559 -15.306  0.00  0.00    +0.032 A 
ATOM      5  C   UNL     1     -12.715   4.032 -16.456  0.00  0.00    +0.088 A 
ATOM      6  C   UNL     1     -13.307   5.073 -17.194  0.00  0.00    +0.165 A 
ENDROOT
BRANCH   2   7
ATOM      7  O   UNL     1     -16.294   5.707 -15.152  0.00  0.00    -0.505 OA
ATOM      8  H   UNL     1     -16.264   6.651 -15.406  0.00  0.00    +0.292 HD
ENDBRANCH   2   7
BRANCH   1   9
ATOM      9  N   UNL     1     -15.088   6.724 -17.520  0.00  0.00    -0.260 N 
ATOM     10  H   UNL     1     -15.853   6.643 -18.135  0.00  0.00    +0.170 HD
BRANCH   9  11
ATOM     11  N   UNL     1     -14.485   7.792 -17.272  0.00  0.00    -0.266 N 
ATOM     12  H   UNL     1     -13.516   7.922 -17.382  0.00  0.00    +0.170 HD
BRANCH  11  13
ATOM     13  C   UNL     1     -15.375   8.785 -16.817  0.00  0.00    +0.044 A 
ATOM     14  C   UNL     1     -15.479   9.020 -15.440  0.00  0.00    +0.024 A 
ATOM     15  C   UNL     1     -16.370   9.976 -14.946  0.00  0.00    +0.002 A 
ATOM     16  C   UNL     1     -17.174  10.699 -15.825  0.00  0.00    +0.000 A 
ATOM     17  C   UNL     1     -17.092  10.464 -17.197  0.00  0.00    +0.002 A 
ATOM     18  C   UNL     1     -16.199   9.508 -17.689  0.00  0.00    +0.024 A 
ENDBRANCH  11  13
ENDBRANCH   9  11
ENDBRANCH   1   9
BRANCH   6  19
ATOM     19  O   UNL     1     -12.680   5.539 -18.328  0.00  0.00    -0.503 OA
ATOM     20  H   UNL     1     -11.955   4.915 -18.519  0.00  0.00    +0.292 HD
ENDBRANCH   6  19
BRANCH   5  21
ATOM     21  N   UNL     1     -11.513   3.446 -16.907  0.00  0.00    -0.263 N 
ATOM     22  H   UNL     1     -10.612   3.707 -16.605  0.00  0.00    +0.170 HD
BRANCH  21  23
ATOM     23  N   UNL     1     -11.755   2.548 -17.745  0.00  0.00    -0.266 N 
ATOM     24  H   UNL     1     -12.291   2.678 -18.560  0.00  0.00    +0.170 HD
BRANCH  23  25
ATOM     25  C   UNL     1     -11.162   1.329 -17.367  0.00  0.00    +0.044 A 
ATOM     26  C   UNL     1     -11.959   0.338 -16.782  0.00  0.00    +0.024 A 
ATOM     27  C   UNL     1     -11.401  -0.871 -16.361  0.00  0.00    +0.002 A 
ATOM     28  C   UNL     1     -10.035  -1.096 -16.514  0.00  0.00    +0.000 A 
ATOM     29  C   UNL     1      -9.226  -0.113 -17.084  0.00  0.00    +0.002 A 
ATOM     30  C   UNL     1      -9.787   1.096 -17.503  0.00  0.00    +0.024 A 
ENDBRANCH  23  25
ENDBRANCH  21  23
ENDBRANCH   5  21
TORSDOF 8
ENDMDL
MODEL 8
REMARK VINA RESULT:      -6.8     11.815     16.119
REMARK  Name = min_compound992.pdb
REMARK  8 active torsions:
REMARK  status: ('A' for Active; 'I' for Inactive)
REMARK    1  A    between atoms: _1  and  _2
REMARK    2  A    between atoms: _1  and  _18
REMARK    3  A    between atoms: _2  and  _7
REMARK    4  A    between atoms: _3  and  _4
REMARK    5  A    between atoms: _3  and  _6
REMARK    6  A    between atoms: _4  and  _12
REMARK    7  A    between atoms: _5  and  _24
REMARK    8  A    between atoms: _9  and  _23
REMARK                            x       y       z     vdW  Elec       q    Type
REMARK                         _______ _______ _______ _____ _____    ______ ____
ROOT
ATOM      1  C   UNL     1     -15.673   0.404  -5.778  0.00  0.00    +0.130 A 
ATOM      2  C   UNL     1     -15.555  -0.771  -6.543  0.00  0.00    +0.143 A 
ATOM      3  C   UNL     1     -16.077  -0.865  -7.828  0.00  0.00    +0.049 A 
ATOM      4  C   UNL     1     -16.726   0.235  -8.385  0.00  0.00    +0.032 A 
ATOM      5  C   UNL     1     -16.836   1.438  -7.669  0.00  0.00    +0.088 A 
ATOM      6  C   UNL     1     -16.311   1.506  -6.366  0.00  0.00    +0.165 A 
ENDROOT
BRANCH   2   7
ATOM      7  O   UNL     1     -14.913  -1.875  -6.044  0.00  0.00    -0.505 OA
ATOM      8  H   UNL     1     -14.037  -1.884  -6.477  0.00  0.00    +0.292 HD
ENDBRANCH   2   7
BRANCH   1   9
ATOM      9  N   UNL     1     -15.111   0.496  -4.484  0.00  0.00    -0.260 N 
ATOM     10  H   UNL     1     -14.157   0.655  -4.299  0.00  0.00    +0.170 HD
BRANCH   9  11
ATOM     11  N   UNL     1     -15.990   0.347  -3.606  0.00  0.00    -0.266 N 
ATOM     12  H   UNL     1     -16.807   0.893  -3.539  0.00  0.00    +0.170 HD
BRANCH  11  13
ATOM     13  C   UNL     1     -15.659  -0.703  -2.727  0.00  0.00    +0.044 A 
ATOM     14  C   UNL     1     -16.657  -1.234  -1.901  0.00  0.00    +0.024 A 
ATOM     15  C   UNL     1     -16.364  -2.256  -0.995  0.00  0.00    +0.002 A 
ATOM     16  C   UNL     1     -15.065  -2.750  -0.900  0.00  0.00    +0.000 A 
ATOM     17  C   UNL     1     -14.058  -2.221  -1.706  0.00  0.00    +0.002 A 
ATOM     18  C   UNL     1     -14.354  -1.198  -2.612  0.00  0.00    +0.024 A 
ENDBRANCH  11  13
ENDBRANCH   9  11
ENDBRANCH   1   9
BRANCH   6  19
ATOM     19  O   UNL     1     -16.422   2.680  -5.654  0.00  0.00    -0.503 OA
ATOM     20  H   UNL     1     -15.751   2.638  -4.946  0.00  0.00    +0.292 HD
ENDBRANCH   6  19
BRANCH   5  21
ATOM     21  N   UNL     1     -17.509   2.552  -8.216  0.00  0.00    -0.263 N 
ATOM     22  H   UNL     1     -18.484   2.620  -8.331  0.00  0.00    +0.170 HD
BRANCH  21  23
ATOM     23  N   UNL     1     -16.687   3.441  -8.533  0.00  0.00    -0.266 N 
ATOM     24  H   UNL     1     -16.180   3.986  -7.889  0.00  0.00    +0.170 HD
BRANCH  23  25
ATOM     25  C   UNL     1     -16.583   3.560  -9.932  0.00  0.00    +0.044 A 
ATOM     26  C   UNL     1     -15.535   4.313 -10.474  0.00  0.00    +0.024 A 
ATOM     27  C   UNL     1     -15.419   4.484 -11.856  0.00  0.00    +0.002 A 
ATOM     28  C   UNL     1     -16.358   3.908 -12.709  0.00  0.00    +0.000 A 
ATOM     29  C   UNL     1     -17.415   3.166 -12.182  0.00  0.00    +0.002 A 
ATOM     30  C   UNL     1     -17.529   2.998 -10.800  0.00  0.00    +0.024 A 
ENDBRANCH  23  25
ENDBRANCH  21  23
ENDBRANCH   5  21
TORSDOF 8
ENDMDL
MODEL 9
REMARK VINA RESULT:      -6.7     10.465     14.179
REMARK  Name = min_compound992.pdb
REMARK  8 active torsions:
REMARK  status: ('A' for Active; 'I' for Inactive)
REMARK    1  A    between atoms: _1  and  _2
REMARK    2  A    between atoms: _1  and  _18
REMARK    3  A    between atoms: _2  and  _7
REMARK    4  A    between atoms: _3  and  _4
REMARK    5  A    between atoms: _3  and  _6
REMARK    6  A    between atoms: _4  and  _12
REMARK    7  A    between atoms: _5  and  _24
REMARK    8  A    between atoms: _9  and  _23
REMARK                            x       y       z     vdW  Elec       q    Type
REMARK                         _______ _______ _______ _____ _____    ______ ____
ROOT
ATOM      1  C   UNL     1     -17.199   1.413  -7.375  0.00  0.00    +0.130 A 
ATOM      2  C   UNL     1     -18.576   1.577  -7.612  0.00  0.00    +0.143 A 
ATOM      3  C   UNL     1     -19.054   2.430  -8.600  0.00  0.00    +0.049 A 
ATOM      4  C   UNL     1     -18.148   3.137  -9.389  0.00  0.00    +0.032 A 
ATOM      5  C   UNL     1     -16.766   2.979  -9.208  0.00  0.00    +0.088 A 
ATOM      6  C   UNL     1     -16.306   2.118  -8.194  0.00  0.00    +0.165 A 
ENDROOT
BRANCH   2   7
ATOM      7  O   UNL     1     -19.506   0.892  -6.872  0.00  0.00    -0.505 OA
ATOM      8  H   UNL     1     -19.029   0.585  -6.076  0.00  0.00    +0.292 HD
ENDBRANCH   2   7
BRANCH   1   9
ATOM      9  N   UNL     1     -16.727   0.518  -6.387  0.00  0.00    -0.260 N 
ATOM     10  H   UNL     1     -16.328  -0.362  -6.575  0.00  0.00    +0.170 HD
BRANCH   9  11
ATOM     11  N   UNL     1     -16.886   0.998  -5.242  0.00  0.00    -0.266 N 
ATOM     12  H   UNL     1     -17.753   1.281  -4.872  0.00  0.00    +0.170 HD
BRANCH  11  13
ATOM     13  C   UNL     1     -15.661   1.078  -4.550  0.00  0.00    +0.044 A 
ATOM     14  C   UNL     1     -15.143  -0.079  -3.954  0.00  0.00    +0.024 A 
ATOM     15  C   UNL     1     -13.946  -0.036  -3.236  0.00  0.00    +0.002 A 
ATOM     16  C   UNL     1     -13.260   1.169  -3.097  0.00  0.00    +0.000 A 
ATOM     17  C   UNL     1     -13.772   2.332  -3.671  0.00  0.00    +0.002 A 
ATOM     18  C   UNL     1     -14.970   2.286  -4.391  0.00  0.00    +0.024 A 
ENDBRANCH  11  13
ENDBRANCH   9  11
ENDBRANCH   1   9
BRANCH   6  19
ATOM     19  O   UNL     1     -14.951   1.962  -8.004  0.00  0.00    -0.503 OA
ATOM     20  H   UNL     1     -14.831   1.697  -7.073  0.00  0.00    +0.292 HD
ENDBRANCH   6  19
BRANCH   5  21
ATOM     21  N   UNL     1     -15.841   3.705  -9.988  0.00  0.00    -0.263 N 
ATOM     22  H   UNL     1     -14.862   3.657  -9.890  0.00  0.00    +0.170 HD
BRANCH  21  23
ATOM     23  N   UNL     1     -16.443   4.419 -10.822  0.00  0.00    -0.266 N 
ATOM     24  H   UNL     1     -17.053   5.154 -10.587  0.00  0.00    +0.170 HD
BRANCH  23  25
ATOM     25  C   UNL     1     -16.132   4.031 -12.138  0.00  0.00    +0.044 A 
ATOM     26  C   UNL     1     -16.934   3.073 -12.771  0.00  0.00    +0.024 A 
ATOM     27  C   UNL     1     -16.637   2.635 -14.064  0.00  0.00    +0.002 A 
ATOM     28  C   UNL     1     -15.527   3.147 -14.734  0.00  0.00    +0.000 A 
ATOM     29  C   UNL     1     -14.712   4.091 -14.111  0.00  0.00    +0.002 A 
ATOM     30  C   UNL     1     -15.011   4.526 -12.817  0.00  0.00    +0.024 A 
ENDBRANCH  23  25
ENDBRANCH  21  23
ENDBRANCH   5  21
TORSDOF 8
ENDMDL
