MODEL 1
REMARK VINA RESULT:      -7.2      0.000      0.000
REMARK  Name = min_compound932.pdb
REMARK  7 active torsions:
REMARK  status: ('A' for Active; 'I' for Inactive)
REMARK    1  A    between atoms: _3  and  _5
REMARK    2  A    between atoms: _6  and  _11
REMARK    3  A    between atoms: _7  and  _15
REMARK    4  A    between atoms: _11  and  _12
REMARK    5  A    between atoms: _11  and  _13
REMARK    6  A    between atoms: _11  and  _14
REMARK    7  A    between atoms: _16  and  _17
REMARK                            x       y       z     vdW  Elec       q    Type
REMARK                         _______ _______ _______ _____ _____    ______ ____
ROOT
ATOM      1  C   UNL     1     -11.892   0.708 -16.828  0.00  0.00    +0.068 A 
ATOM      2  C   UNL     1     -11.388   1.719 -17.653  0.00  0.00    +0.068 A 
ATOM      3  C   UNL     1     -12.329   2.732 -17.630  0.00  0.00    +0.125 A 
ATOM      4  N   UNL     1     -13.309   2.290 -16.748  0.00  0.00    -0.245 N 
ATOM      5  N   UNL     1     -13.049   1.047 -16.271  0.00  0.00    -0.174 NA
ENDROOT
BRANCH   3   6
ATOM      6  N   UNL     1     -12.345   3.940 -18.323  0.00  0.00    -0.254 N 
ATOM      7  H   UNL     1     -12.584   3.945 -19.301  0.00  0.00    +0.158 HD
ATOM      8  C   UNL     1     -11.776   5.089 -17.830  0.00  0.00    +0.309 C 
ATOM      9  N   UNL     1     -11.823   6.205 -18.617  0.00  0.00    -0.269 N 
ATOM     10  H   UNL     1     -11.163   6.894 -18.274  0.00  0.00    +0.156 HD
ATOM     11  O   UNL     1     -11.153   5.190 -16.774  0.00  0.00    -0.252 OA
BRANCH   9  12
ATOM     12  C   UNL     1     -12.600   6.593 -19.717  0.00  0.00    +0.035 A 
ATOM     13  C   UNL     1     -11.914   6.892 -20.901  0.00  0.00    +0.023 A 
ATOM     14  C   UNL     1     -12.604   7.287 -22.048  0.00  0.00    +0.002 A 
ATOM     15  C   UNL     1     -13.990   7.406 -22.016  0.00  0.00    +0.000 A 
ATOM     16  C   UNL     1     -14.679   7.152 -20.832  0.00  0.00    +0.002 A 
ATOM     17  C   UNL     1     -13.984   6.762 -19.682  0.00  0.00    +0.023 A 
ENDBRANCH   9  12
ENDBRANCH   3   6
BRANCH   4  18
ATOM     18  C   UNL     1     -14.553   2.950 -16.297  0.00  0.00    +0.057 C 
ATOM     19  C   UNL     1     -15.353   3.449 -17.513  0.00  0.00    +0.036 C 
ATOM     20  C   UNL     1     -14.248   4.111 -15.333  0.00  0.00    +0.036 C 
ATOM     21  C   UNL     1     -15.471   1.970 -15.514  0.00  0.00    +0.036 C 
ENDBRANCH   4  18
BRANCH   1  24
ATOM     22  C   UNL     1      -9.941  -0.664 -15.767  0.00  0.00    +0.010 C 
ATOM     23  C   UNL     1      -9.830  -0.846 -17.241  0.00  0.00    +0.010 C 
ATOM     24  C   UNL     1     -11.195  -0.628 -16.619  0.00  0.00    +0.040 C 
ENDBRANCH   1  24
TORSDOF 4
ENDMDL
MODEL 2
REMARK VINA RESULT:      -6.7      1.832      2.202
REMARK  Name = min_compound932.pdb
REMARK  7 active torsions:
REMARK  status: ('A' for Active; 'I' for Inactive)
REMARK    1  A    between atoms: _3  and  _5
REMARK    2  A    between atoms: _6  and  _11
REMARK    3  A    between atoms: _7  and  _15
REMARK    4  A    between atoms: _11  and  _12
REMARK    5  A    between atoms: _11  and  _13
REMARK    6  A    between atoms: _11  and  _14
REMARK    7  A    between atoms: _16  and  _17
REMARK                            x       y       z     vdW  Elec       q    Type
REMARK                         _______ _______ _______ _____ _____    ______ ____
ROOT
ATOM      1  C   UNL     1     -12.016   0.835 -16.965  0.00  0.00    +0.068 A 
ATOM      2  C   UNL     1     -11.732   1.449 -18.190  0.00  0.00    +0.068 A 
ATOM      3  C   UNL     1     -12.505   2.595 -18.227  0.00  0.00    +0.125 A 
ATOM      4  N   UNL     1     -13.158   2.627 -17.000  0.00  0.00    -0.245 N 
ATOM      5  N   UNL     1     -12.871   1.543 -16.236  0.00  0.00    -0.174 NA
ENDROOT
BRANCH   3   6
ATOM      6  N   UNL     1     -12.643   3.536 -19.245  0.00  0.00    -0.254 N 
ATOM      7  H   UNL     1     -12.164   4.418 -19.171  0.00  0.00    +0.158 HD
ATOM      8  C   UNL     1     -13.620   3.452 -20.208  0.00  0.00    +0.309 C 
ATOM      9  N   UNL     1     -13.680   4.455 -21.135  0.00  0.00    -0.269 N 
ATOM     10  H   UNL     1     -14.571   4.425 -21.615  0.00  0.00    +0.156 HD
ATOM     11  O   UNL     1     -14.504   2.599 -20.268  0.00  0.00    -0.252 OA
BRANCH   9  12
ATOM     12  C   UNL     1     -12.778   5.435 -21.573  0.00  0.00    +0.035 A 
ATOM     13  C   UNL     1     -12.175   5.226 -22.820  0.00  0.00    +0.023 A 
ATOM     14  C   UNL     1     -11.263   6.147 -23.338  0.00  0.00    +0.002 A 
ATOM     15  C   UNL     1     -10.932   7.282 -22.602  0.00  0.00    +0.000 A 
ATOM     16  C   UNL     1     -11.494   7.478 -21.343  0.00  0.00    +0.002 A 
ATOM     17  C   UNL     1     -12.402   6.549 -20.823  0.00  0.00    +0.023 A 
ENDBRANCH   9  12
ENDBRANCH   3   6
BRANCH   4  18
ATOM     18  C   UNL     1     -14.100   3.624 -16.447  0.00  0.00    +0.057 C 
ATOM     19  C   UNL     1     -15.519   3.355 -16.976  0.00  0.00    +0.036 C 
ATOM     20  C   UNL     1     -13.655   5.058 -16.790  0.00  0.00    +0.036 C 
ATOM     21  C   UNL     1     -14.166   3.553 -14.896  0.00  0.00    +0.036 C 
ENDBRANCH   4  18
BRANCH   1  24
ATOM     22  C   UNL     1     -10.144  -0.495 -15.726  0.00  0.00    +0.010 C 
ATOM     23  C   UNL     1     -10.105  -0.940 -17.147  0.00  0.00    +0.010 C 
ATOM     24  C   UNL     1     -11.422  -0.499 -16.540  0.00  0.00    +0.040 C 
ENDBRANCH   1  24
TORSDOF 4
ENDMDL
MODEL 3
REMARK VINA RESULT:      -6.6      2.661      4.281
REMARK  Name = min_compound932.pdb
REMARK  7 active torsions:
REMARK  status: ('A' for Active; 'I' for Inactive)
REMARK    1  A    between atoms: _3  and  _5
REMARK    2  A    between atoms: _6  and  _11
REMARK    3  A    between atoms: _7  and  _15
REMARK    4  A    between atoms: _11  and  _12
REMARK    5  A    between atoms: _11  and  _13
REMARK    6  A    between atoms: _11  and  _14
REMARK    7  A    between atoms: _16  and  _17
REMARK                            x       y       z     vdW  Elec       q    Type
REMARK                         _______ _______ _______ _____ _____    ______ ____
ROOT
ATOM      1  C   UNL     1     -11.844   0.785 -17.292  0.00  0.00    +0.068 A 
ATOM      2  C   UNL     1     -12.421   1.509 -16.242  0.00  0.00    +0.068 A 
ATOM      3  C   UNL     1     -13.140   2.530 -16.835  0.00  0.00    +0.125 A 
ATOM      4  N   UNL     1     -12.998   2.320 -18.203  0.00  0.00    -0.245 N 
ATOM      5  N   UNL     1     -12.193   1.264 -18.481  0.00  0.00    -0.174 NA
ENDROOT
BRANCH   3   6
ATOM      6  N   UNL     1     -13.856   3.567 -16.243  0.00  0.00    -0.254 N 
ATOM      7  H   UNL     1     -13.409   4.457 -16.099  0.00  0.00    +0.158 HD
ATOM      8  C   UNL     1     -15.044   3.368 -15.581  0.00  0.00    +0.309 C 
ATOM      9  N   UNL     1     -15.637   4.458 -15.008  0.00  0.00    -0.269 N 
ATOM     10  H   UNL     1     -16.343   4.155 -14.346  0.00  0.00    +0.156 HD
ATOM     11  O   UNL     1     -15.586   2.282 -15.382  0.00  0.00    -0.252 OA
BRANCH   9  12
ATOM     12  C   UNL     1     -15.512   5.843 -15.182  0.00  0.00    +0.035 A 
ATOM     13  C   UNL     1     -15.779   6.647 -14.066  0.00  0.00    +0.023 A 
ATOM     14  C   UNL     1     -15.680   8.037 -14.145  0.00  0.00    +0.002 A 
ATOM     15  C   UNL     1     -15.331   8.639 -15.350  0.00  0.00    +0.000 A 
ATOM     16  C   UNL     1     -15.105   7.852 -16.477  0.00  0.00    +0.002 A 
ATOM     17  C   UNL     1     -15.211   6.458 -16.397  0.00  0.00    +0.023 A 
ENDBRANCH   9  12
ENDBRANCH   3   6
BRANCH   4  18
ATOM     18  C   UNL     1     -13.559   3.072 -19.346  0.00  0.00    +0.057 C 
ATOM     19  C   UNL     1     -13.411   2.251 -20.638  0.00  0.00    +0.036 C 
ATOM     20  C   UNL     1     -12.880   4.446 -19.494  0.00  0.00    +0.036 C 
ATOM     21  C   UNL     1     -15.075   3.360 -19.155  0.00  0.00    +0.036 C 
ENDBRANCH   4  18
BRANCH   1  24
ATOM     22  C   UNL     1      -9.882  -0.317 -15.970  0.00  0.00    +0.010 C 
ATOM     23  C   UNL     1      -9.437  -0.230 -17.389  0.00  0.00    +0.010 C 
ATOM     24  C   UNL     1     -10.911  -0.397 -17.080  0.00  0.00    +0.040 C 
ENDBRANCH   1  24
TORSDOF 4
ENDMDL
MODEL 4
REMARK VINA RESULT:      -6.6      1.988      6.926
REMARK  Name = min_compound932.pdb
REMARK  7 active torsions:
REMARK  status: ('A' for Active; 'I' for Inactive)
REMARK    1  A    between atoms: _3  and  _5
REMARK    2  A    between atoms: _6  and  _11
REMARK    3  A    between atoms: _7  and  _15
REMARK    4  A    between atoms: _11  and  _12
REMARK    5  A    between atoms: _11  and  _13
REMARK    6  A    between atoms: _11  and  _14
REMARK    7  A    between atoms: _16  and  _17
REMARK                            x       y       z     vdW  Elec       q    Type
REMARK                         _______ _______ _______ _____ _____    ______ ____
ROOT
ATOM      1  C   UNL     1     -13.879   5.048 -21.415  0.00  0.00    +0.068 A 
ATOM      2  C   UNL     1     -13.881   3.779 -20.826  0.00  0.00    +0.068 A 
ATOM      3  C   UNL     1     -13.318   3.941 -19.573  0.00  0.00    +0.125 A 
ATOM      4  N   UNL     1     -13.068   5.305 -19.467  0.00  0.00    -0.245 N 
ATOM      5  N   UNL     1     -13.395   5.978 -20.598  0.00  0.00    -0.174 NA
ENDROOT
BRANCH   3   6
ATOM      6  N   UNL     1     -13.035   2.984 -18.601  0.00  0.00    -0.254 N 
ATOM      7  H   UNL     1     -12.281   2.335 -18.752  0.00  0.00    +0.158 HD
ATOM      8  C   UNL     1     -13.900   2.685 -17.577  0.00  0.00    +0.309 C 
ATOM      9  N   UNL     1     -13.529   1.702 -16.703  0.00  0.00    -0.269 N 
ATOM     10  H   UNL     1     -14.333   1.397 -16.169  0.00  0.00    +0.156 HD
ATOM     11  O   UNL     1     -15.023   3.162 -17.417  0.00  0.00    -0.252 OA
BRANCH   9  12
ATOM     12  C   UNL     1     -12.307   1.098 -16.374  0.00  0.00    +0.035 A 
ATOM     13  C   UNL     1     -12.188  -0.272 -16.642  0.00  0.00    +0.023 A 
ATOM     14  C   UNL     1     -11.009  -0.958 -16.348  0.00  0.00    +0.002 A 
ATOM     15  C   UNL     1      -9.941  -0.283 -15.764  0.00  0.00    +0.000 A 
ATOM     16  C   UNL     1     -10.064   1.069 -15.454  0.00  0.00    +0.002 A 
ATOM     17  C   UNL     1     -11.251   1.754 -15.744  0.00  0.00    +0.023 A 
ENDBRANCH   9  12
ENDBRANCH   3   6
BRANCH   4  18
ATOM     18  C   UNL     1     -12.496   6.084 -18.348  0.00  0.00    +0.057 C 
ATOM     19  C   UNL     1     -11.837   7.367 -18.885  0.00  0.00    +0.036 C 
ATOM     20  C   UNL     1     -11.481   5.246 -17.549  0.00  0.00    +0.036 C 
ATOM     21  C   UNL     1     -13.590   6.519 -17.333  0.00  0.00    +0.036 C 
ENDBRANCH   4  18
BRANCH   1  24
ATOM     22  C   UNL     1     -13.321   5.523 -23.919  0.00  0.00    +0.010 C 
ATOM     23  C   UNL     1     -14.125   6.682 -23.440  0.00  0.00    +0.010 C 
ATOM     24  C   UNL     1     -14.358   5.313 -22.834  0.00  0.00    +0.040 C 
ENDBRANCH   1  24
TORSDOF 4
ENDMDL
MODEL 5
REMARK VINA RESULT:      -6.6      2.473      6.563
REMARK  Name = min_compound932.pdb
REMARK  7 active torsions:
REMARK  status: ('A' for Active; 'I' for Inactive)
REMARK    1  A    between atoms: _3  and  _5
REMARK    2  A    between atoms: _6  and  _11
REMARK    3  A    between atoms: _7  and  _15
REMARK    4  A    between atoms: _11  and  _12
REMARK    5  A    between atoms: _11  and  _13
REMARK    6  A    between atoms: _11  and  _14
REMARK    7  A    between atoms: _16  and  _17
REMARK                            x       y       z     vdW  Elec       q    Type
REMARK                         _______ _______ _______ _____ _____    ______ ____
ROOT
ATOM      1  C   UNL     1     -16.860   3.080 -15.957  0.00  0.00    +0.068 A 
ATOM      2  C   UNL     1     -15.727   2.575 -15.311  0.00  0.00    +0.068 A 
ATOM      3  C   UNL     1     -14.692   2.681 -16.220  0.00  0.00    +0.125 A 
ATOM      4  N   UNL     1     -15.255   3.296 -17.334  0.00  0.00    -0.245 N 
ATOM      5  N   UNL     1     -16.583   3.524 -17.178  0.00  0.00    -0.174 NA
ENDROOT
BRANCH   3   6
ATOM      6  N   UNL     1     -13.366   2.271 -16.103  0.00  0.00    -0.254 N 
ATOM      7  H   UNL     1     -13.148   1.289 -16.128  0.00  0.00    +0.158 HD
ATOM      8  C   UNL     1     -12.365   3.105 -15.668  0.00  0.00    +0.309 C 
ATOM      9  N   UNL     1     -11.107   2.580 -15.559  0.00  0.00    -0.269 N 
ATOM     10  H   UNL     1     -10.528   3.192 -14.997  0.00  0.00    +0.156 HD
ATOM     11  O   UNL     1     -12.507   4.266 -15.286  0.00  0.00    -0.252 OA
BRANCH   9  12
ATOM     12  C   UNL     1     -10.473   1.447 -16.087  0.00  0.00    +0.035 A 
ATOM     13  C   UNL     1     -10.364   0.333 -15.244  0.00  0.00    +0.023 A 
ATOM     14  C   UNL     1      -9.747  -0.839 -15.683  0.00  0.00    +0.002 A 
ATOM     15  C   UNL     1      -9.216  -0.903 -16.968  0.00  0.00    +0.000 A 
ATOM     16  C   UNL     1      -9.281   0.212 -17.800  0.00  0.00    +0.002 A 
ATOM     17  C   UNL     1      -9.894   1.389 -17.354  0.00  0.00    +0.023 A 
ENDBRANCH   9  12
ENDBRANCH   3   6
BRANCH   4  18
ATOM     18  C   UNL     1     -14.637   3.695 -18.616  0.00  0.00    +0.057 C 
ATOM     19  C   UNL     1     -13.812   4.979 -18.425  0.00  0.00    +0.036 C 
ATOM     20  C   UNL     1     -15.704   3.893 -19.709  0.00  0.00    +0.036 C 
ATOM     21  C   UNL     1     -13.670   2.603 -19.153  0.00  0.00    +0.036 C 
ENDBRANCH   4  18
BRANCH   1  24
ATOM     22  C   UNL     1     -18.809   4.415 -14.849  0.00  0.00    +0.010 C 
ATOM     23  C   UNL     1     -18.377   3.396 -13.852  0.00  0.00    +0.010 C 
ATOM     24  C   UNL     1     -18.246   3.093 -15.331  0.00  0.00    +0.040 C 
ENDBRANCH   1  24
TORSDOF 4
ENDMDL
MODEL 6
REMARK VINA RESULT:      -6.5      9.245     13.062
REMARK  Name = min_compound932.pdb
REMARK  7 active torsions:
REMARK  status: ('A' for Active; 'I' for Inactive)
REMARK    1  A    between atoms: _3  and  _5
REMARK    2  A    between atoms: _6  and  _11
REMARK    3  A    between atoms: _7  and  _15
REMARK    4  A    between atoms: _11  and  _12
REMARK    5  A    between atoms: _11  and  _13
REMARK    6  A    between atoms: _11  and  _14
REMARK    7  A    between atoms: _16  and  _17
REMARK                            x       y       z     vdW  Elec       q    Type
REMARK                         _______ _______ _______ _____ _____    ______ ____
ROOT
ATOM      1  C   UNL     1     -17.837   3.025 -10.315  0.00  0.00    +0.068 A 
ATOM      2  C   UNL     1     -16.702   2.415  -9.769  0.00  0.00    +0.068 A 
ATOM      3  C   UNL     1     -17.129   1.780  -8.618  0.00  0.00    +0.125 A 
ATOM      4  N   UNL     1     -18.503   1.998  -8.577  0.00  0.00    -0.245 N 
ATOM      5  N   UNL     1     -18.931   2.772  -9.605  0.00  0.00    -0.174 NA
ENDROOT
BRANCH   3   6
ATOM      6  N   UNL     1     -16.391   1.073  -7.671  0.00  0.00    -0.254 N 
ATOM      7  H   UNL     1     -15.784   1.574  -7.044  0.00  0.00    +0.158 HD
ATOM      8  C   UNL     1     -16.218  -0.289  -7.727  0.00  0.00    +0.309 C 
ATOM      9  N   UNL     1     -15.442  -0.867  -6.762  0.00  0.00    -0.269 N 
ATOM     10  H   UNL     1     -15.179  -1.802  -7.049  0.00  0.00    +0.156 HD
ATOM     11  O   UNL     1     -16.630  -1.033  -8.616  0.00  0.00    -0.252 OA
BRANCH   9  12
ATOM     12  C   UNL     1     -15.002  -0.467  -5.493  0.00  0.00    +0.035 A 
ATOM     13  C   UNL     1     -14.005   0.517  -5.451  0.00  0.00    +0.023 A 
ATOM     14  C   UNL     1     -13.505   0.977  -4.232  0.00  0.00    +0.002 A 
ATOM     15  C   UNL     1     -13.986   0.444  -3.040  0.00  0.00    +0.000 A 
ATOM     16  C   UNL     1     -14.946  -0.565  -3.071  0.00  0.00    +0.002 A 
ATOM     17  C   UNL     1     -15.441  -1.030  -4.295  0.00  0.00    +0.023 A 
ENDBRANCH   9  12
ENDBRANCH   3   6
BRANCH   4  18
ATOM     18  C   UNL     1     -19.511   1.543  -7.596  0.00  0.00    +0.057 C 
ATOM     19  C   UNL     1     -20.829   2.308  -7.805  0.00  0.00    +0.036 C 
ATOM     20  C   UNL     1     -19.003   1.720  -6.154  0.00  0.00    +0.036 C 
ATOM     21  C   UNL     1     -19.828   0.030  -7.758  0.00  0.00    +0.036 C 
ENDBRANCH   4  18
BRANCH   1  24
ATOM     22  C   UNL     1     -17.683   3.208 -12.913  0.00  0.00    +0.010 C 
ATOM     23  C   UNL     1     -16.521   3.964 -12.369  0.00  0.00    +0.010 C 
ATOM     24  C   UNL     1     -17.803   3.890 -11.565  0.00  0.00    +0.040 C 
ENDBRANCH   1  24
TORSDOF 4
ENDMDL
MODEL 7
REMARK VINA RESULT:      -6.5      2.439      5.269
REMARK  Name = min_compound932.pdb
REMARK  7 active torsions:
REMARK  status: ('A' for Active; 'I' for Inactive)
REMARK    1  A    between atoms: _3  and  _5
REMARK    2  A    between atoms: _6  and  _11
REMARK    3  A    between atoms: _7  and  _15
REMARK    4  A    between atoms: _11  and  _12
REMARK    5  A    between atoms: _11  and  _13
REMARK    6  A    between atoms: _11  and  _14
REMARK    7  A    between atoms: _16  and  _17
REMARK                            x       y       z     vdW  Elec       q    Type
REMARK                         _______ _______ _______ _____ _____    ______ ____
ROOT
ATOM      1  C   UNL     1     -11.724   0.453 -17.371  0.00  0.00    +0.068 A 
ATOM      2  C   UNL     1     -12.517   0.820 -16.278  0.00  0.00    +0.068 A 
ATOM      3  C   UNL     1     -13.284   1.887 -16.707  0.00  0.00    +0.125 A 
ATOM      4  N   UNL     1     -12.946   2.056 -18.046  0.00  0.00    -0.245 N 
ATOM      5  N   UNL     1     -11.982   1.190 -18.446  0.00  0.00    -0.174 NA
ENDROOT
BRANCH   3   6
ATOM      6  N   UNL     1     -14.199   2.661 -15.997  0.00  0.00    -0.254 N 
ATOM      7  H   UNL     1     -15.184   2.506 -16.128  0.00  0.00    +0.158 HD
ATOM      8  C   UNL     1     -13.845   3.818 -15.344  0.00  0.00    +0.309 C 
ATOM      9  N   UNL     1     -14.837   4.514 -14.711  0.00  0.00    -0.269 N 
ATOM     10  H   UNL     1     -14.516   5.451 -14.499  0.00  0.00    +0.156 HD
ATOM     11  O   UNL     1     -12.729   4.335 -15.344  0.00  0.00    -0.252 OA
BRANCH   9  12
ATOM     12  C   UNL     1     -16.127   4.190 -14.268  0.00  0.00    +0.035 A 
ATOM     13  C   UNL     1     -16.222   3.493 -13.056  0.00  0.00    +0.023 A 
ATOM     14  C   UNL     1     -17.465   3.127 -12.537  0.00  0.00    +0.002 A 
ATOM     15  C   UNL     1     -18.627   3.440 -13.235  0.00  0.00    +0.000 A 
ATOM     16  C   UNL     1     -18.542   4.096 -14.461  0.00  0.00    +0.002 A 
ATOM     17  C   UNL     1     -17.294   4.455 -14.984  0.00  0.00    +0.023 A 
ENDBRANCH   9  12
ENDBRANCH   3   6
BRANCH   4  18
ATOM     18  C   UNL     1     -13.454   3.023 -19.042  0.00  0.00    +0.057 C 
ATOM     19  C   UNL     1     -13.338   2.429 -20.457  0.00  0.00    +0.036 C 
ATOM     20  C   UNL     1     -12.700   4.362 -18.952  0.00  0.00    +0.036 C 
ATOM     21  C   UNL     1     -14.954   3.357 -18.806  0.00  0.00    +0.036 C 
ENDBRANCH   4  18
BRANCH   1  24
ATOM     22  C   UNL     1      -9.796  -0.747 -16.085  0.00  0.00    +0.010 C 
ATOM     23  C   UNL     1      -9.213  -0.271 -17.370  0.00  0.00    +0.010 C 
ATOM     24  C   UNL     1     -10.678  -0.650 -17.314  0.00  0.00    +0.040 C 
ENDBRANCH   1  24
TORSDOF 4
ENDMDL
MODEL 8
REMARK VINA RESULT:      -6.5      3.487      6.865
REMARK  Name = min_compound932.pdb
REMARK  7 active torsions:
REMARK  status: ('A' for Active; 'I' for Inactive)
REMARK    1  A    between atoms: _3  and  _5
REMARK    2  A    between atoms: _6  and  _11
REMARK    3  A    between atoms: _7  and  _15
REMARK    4  A    between atoms: _11  and  _12
REMARK    5  A    between atoms: _11  and  _13
REMARK    6  A    between atoms: _11  and  _14
REMARK    7  A    between atoms: _16  and  _17
REMARK                            x       y       z     vdW  Elec       q    Type
REMARK                         _______ _______ _______ _____ _____    ______ ____
ROOT
ATOM      1  C   UNL     1     -16.182   5.320 -12.381  0.00  0.00    +0.068 A 
ATOM      2  C   UNL     1     -14.860   5.115 -12.792  0.00  0.00    +0.068 A 
ATOM      3  C   UNL     1     -14.929   4.267 -13.882  0.00  0.00    +0.125 A 
ATOM      4  N   UNL     1     -16.289   4.063 -14.093  0.00  0.00    -0.245 N 
ATOM      5  N   UNL     1     -17.053   4.694 -13.166  0.00  0.00    -0.174 NA
ENDROOT
BRANCH   3   6
ATOM      6  N   UNL     1     -13.898   3.705 -14.632  0.00  0.00    -0.254 N 
ATOM      7  H   UNL     1     -13.300   3.014 -14.209  0.00  0.00    +0.158 HD
ATOM      8  C   UNL     1     -13.464   4.241 -15.820  0.00  0.00    +0.309 C 
ATOM      9  N   UNL     1     -12.420   3.622 -16.448  0.00  0.00    -0.269 N 
ATOM     10  H   UNL     1     -12.030   4.238 -17.151  0.00  0.00    +0.156 HD
ATOM     11  O   UNL     1     -13.874   5.280 -16.336  0.00  0.00    -0.252 OA
BRANCH   9  12
ATOM     12  C   UNL     1     -11.842   2.348 -16.357  0.00  0.00    +0.035 A 
ATOM     13  C   UNL     1     -12.515   1.303 -17.004  0.00  0.00    +0.023 A 
ATOM     14  C   UNL     1     -12.015   0.000 -16.968  0.00  0.00    +0.002 A 
ATOM     15  C   UNL     1     -10.845  -0.274 -16.266  0.00  0.00    +0.000 A 
ATOM     16  C   UNL     1     -10.191   0.750 -15.584  0.00  0.00    +0.002 A 
ATOM     17  C   UNL     1     -10.698   2.054 -15.617  0.00  0.00    +0.023 A 
ENDBRANCH   9  12
ENDBRANCH   3   6
BRANCH   4  18
ATOM     18  C   UNL     1     -16.984   3.269 -15.128  0.00  0.00    +0.057 C 
ATOM     19  C   UNL     1     -16.305   1.898 -15.281  0.00  0.00    +0.036 C 
ATOM     20  C   UNL     1     -17.013   4.015 -16.474  0.00  0.00    +0.036 C 
ATOM     21  C   UNL     1     -18.469   3.007 -14.749  0.00  0.00    +0.036 C 
ENDBRANCH   4  18
BRANCH   1  24
ATOM     22  C   UNL     1     -16.431   5.519  -9.791  0.00  0.00    +0.010 C 
ATOM     23  C   UNL     1     -17.786   5.754 -10.363  0.00  0.00    +0.010 C 
ATOM     24  C   UNL     1     -16.562   6.148 -11.164  0.00  0.00    +0.040 C 
ENDBRANCH   1  24
TORSDOF 4
ENDMDL
MODEL 9
REMARK VINA RESULT:      -6.5      1.748      6.429
REMARK  Name = min_compound932.pdb
REMARK  7 active torsions:
REMARK  status: ('A' for Active; 'I' for Inactive)
REMARK    1  A    between atoms: _3  and  _5
REMARK    2  A    between atoms: _6  and  _11
REMARK    3  A    between atoms: _7  and  _15
REMARK    4  A    between atoms: _11  and  _12
REMARK    5  A    between atoms: _11  and  _13
REMARK    6  A    between atoms: _11  and  _14
REMARK    7  A    between atoms: _16  and  _17
REMARK                            x       y       z     vdW  Elec       q    Type
REMARK                         _______ _______ _______ _____ _____    ______ ____
ROOT
ATOM      1  C   UNL     1     -14.857   5.832 -18.477  0.00  0.00    +0.068 A 
ATOM      2  C   UNL     1     -13.609   5.206 -18.573  0.00  0.00    +0.068 A 
ATOM      3  C   UNL     1     -13.530   4.349 -17.491  0.00  0.00    +0.125 A 
ATOM      4  N   UNL     1     -14.757   4.471 -16.847  0.00  0.00    -0.245 N 
ATOM      5  N   UNL     1     -15.560   5.389 -17.440  0.00  0.00    -0.174 NA
ENDROOT
BRANCH   3   6
ATOM      6  N   UNL     1     -12.477   3.532 -17.085  0.00  0.00    -0.254 N 
ATOM      7  H   UNL     1     -12.663   2.575 -16.837  0.00  0.00    +0.158 HD
ATOM      8  C   UNL     1     -11.247   4.027 -16.726  0.00  0.00    +0.309 C 
ATOM      9  N   UNL     1     -10.303   3.130 -16.310  0.00  0.00    -0.269 N 
ATOM     10  H   UNL     1      -9.552   3.619 -15.836  0.00  0.00    +0.156 HD
ATOM     11  O   UNL     1     -10.937   5.215 -16.665  0.00  0.00    -0.252 OA
BRANCH   9  12
ATOM     12  C   UNL     1     -10.145   1.744 -16.447  0.00  0.00    +0.035 A 
ATOM     13  C   UNL     1     -10.289   0.974 -15.285  0.00  0.00    +0.023 A 
ATOM     14  C   UNL     1     -10.148  -0.414 -15.325  0.00  0.00    +0.002 A 
ATOM     15  C   UNL     1      -9.842  -1.046 -16.526  0.00  0.00    +0.000 A 
ATOM     16  C   UNL     1      -9.655  -0.286 -17.679  0.00  0.00    +0.002 A 
ATOM     17  C   UNL     1      -9.790   1.107 -17.635  0.00  0.00    +0.023 A 
ENDBRANCH   9  12
ENDBRANCH   3   6
BRANCH   4  18
ATOM     18  C   UNL     1     -15.273   3.786 -15.643  0.00  0.00    +0.057 C 
ATOM     19  C   UNL     1     -15.223   2.262 -15.844  0.00  0.00    +0.036 C 
ATOM     20  C   UNL     1     -16.706   4.244 -15.314  0.00  0.00    +0.036 C 
ATOM     21  C   UNL     1     -14.418   4.112 -14.386  0.00  0.00    +0.036 C 
ENDBRANCH   4  18
BRANCH   1  24
ATOM     22  C   UNL     1     -16.096   6.483 -20.679  0.00  0.00    +0.010 C 
ATOM     23  C   UNL     1     -14.701   6.985 -20.818  0.00  0.00    +0.010 C 
ATOM     24  C   UNL     1     -15.331   6.907 -19.442  0.00  0.00    +0.040 C 
ENDBRANCH   1  24
TORSDOF 4
ENDMDL
