MODEL 1
REMARK VINA RESULT:      -5.6      0.000      0.000
REMARK  Name = min_compound96.pdb
REMARK  7 active torsions:
REMARK  status: ('A' for Active; 'I' for Inactive)
REMARK    1  A    between atoms: _2  and  _5
REMARK    2  A    between atoms: _3  and  _8
REMARK    3  A    between atoms: _5  and  _7
REMARK    4  A    between atoms: _10  and  _11
REMARK    5  A    between atoms: _11  and  _12
REMARK    6  A    between atoms: _12  and  _13
REMARK    7  A    between atoms: _12  and  _14
REMARK                            x       y       z     vdW  Elec       q    Type
REMARK                         _______ _______ _______ _____ _____    ______ ____
ROOT
ATOM      1  C   UNL     1     -12.580   1.354 -17.080  0.00  0.00    +0.237 C 
ATOM      2  N   UNL     1     -12.529   2.164 -15.976  0.00  0.00    -0.312 N 
ATOM      3  H   UNL     1     -12.264   1.781 -15.077  0.00  0.00    +0.149 HD
ATOM      4  O   UNL     1     -12.780   1.739 -18.225  0.00  0.00    -0.271 OA
ENDROOT
BRANCH   1   6
ATOM      5  C   UNL     1     -11.142  -0.560 -16.358  0.00  0.00    +0.096 C 
ATOM      6  C   UNL     1     -12.311  -0.065 -16.793  0.00  0.00    +0.074 C 
BRANCH   5   7
ATOM      7  C   UNL     1      -9.853   0.057 -15.984  0.00  0.00    +0.330 C 
ATOM      8  O   UNL     1      -8.849  -0.205 -16.634  0.00  0.00    -0.246 OA
BRANCH   7   9
ATOM      9  O   UNL     1      -9.827   0.905 -14.950  0.00  0.00    -0.478 OA
ATOM     10  H   UNL     1     -10.703   1.229 -14.632  0.00  0.00    +0.295 HD
ENDBRANCH   7   9
ENDBRANCH   5   7
ENDBRANCH   1   6
BRANCH   2  11
ATOM     11  C   UNL     1     -12.553   3.611 -16.115  0.00  0.00    +0.107 C 
BRANCH  11  12
ATOM     12  C   UNL     1     -11.270   4.194 -16.752  0.00  0.00    -0.000 C 
ATOM     13  C   UNL     1     -10.139   4.246 -15.769  0.00  0.00    +0.009 C 
ATOM     14  C   UNL     1     -11.557   5.545 -17.424  0.00  0.00    +0.009 C 
ENDBRANCH  11  12
ENDBRANCH   2  11
TORSDOF 5
ENDMDL
MODEL 2
REMARK VINA RESULT:      -5.2      1.028      1.028
REMARK  Name = min_compound96.pdb
REMARK  7 active torsions:
REMARK  status: ('A' for Active; 'I' for Inactive)
REMARK    1  A    between atoms: _2  and  _5
REMARK    2  A    between atoms: _3  and  _8
REMARK    3  A    between atoms: _5  and  _7
REMARK    4  A    between atoms: _10  and  _11
REMARK    5  A    between atoms: _11  and  _12
REMARK    6  A    between atoms: _12  and  _13
REMARK    7  A    between atoms: _12  and  _14
REMARK                            x       y       z     vdW  Elec       q    Type
REMARK                         _______ _______ _______ _____ _____    ______ ____
ROOT
ATOM      1  C   UNL     1     -12.705   1.368 -16.741  0.00  0.00    +0.237 C 
ATOM      2  N   UNL     1     -11.915   2.122 -17.569  0.00  0.00    -0.312 N 
ATOM      3  H   UNL     1     -11.210   1.677 -18.141  0.00  0.00    +0.149 HD
ATOM      4  O   UNL     1     -13.654   1.794 -16.096  0.00  0.00    -0.271 OA
ENDROOT
BRANCH   1   6
ATOM      5  C   UNL     1     -11.144  -0.560 -16.426  0.00  0.00    +0.096 C 
ATOM      6  C   UNL     1     -12.355  -0.063 -16.721  0.00  0.00    +0.074 C 
BRANCH   5   7
ATOM      7  C   UNL     1      -9.868   0.053 -16.001  0.00  0.00    +0.330 C 
ATOM      8  O   UNL     1      -8.852  -0.157 -16.652  0.00  0.00    -0.246 OA
BRANCH   7   9
ATOM      9  O   UNL     1      -9.868   0.841 -14.920  0.00  0.00    -0.478 OA
ATOM     10  H   UNL     1     -10.432   0.545 -14.167  0.00  0.00    +0.295 HD
ENDBRANCH   7   9
ENDBRANCH   5   7
ENDBRANCH   1   6
BRANCH   2  11
ATOM     11  C   UNL     1     -12.262   3.502 -17.871  0.00  0.00    +0.107 C 
BRANCH  11  12
ATOM     12  C   UNL     1     -11.173   4.519 -17.456  0.00  0.00    -0.000 C 
ATOM     13  C   UNL     1     -10.552   4.159 -16.141  0.00  0.00    +0.009 C 
ATOM     14  C   UNL     1     -11.720   5.954 -17.500  0.00  0.00    +0.009 C 
ENDBRANCH  11  12
ENDBRANCH   2  11
TORSDOF 5
ENDMDL
MODEL 3
REMARK VINA RESULT:      -5.0      1.680      3.962
REMARK  Name = min_compound96.pdb
REMARK  7 active torsions:
REMARK  status: ('A' for Active; 'I' for Inactive)
REMARK    1  A    between atoms: _2  and  _5
REMARK    2  A    between atoms: _3  and  _8
REMARK    3  A    between atoms: _5  and  _7
REMARK    4  A    between atoms: _10  and  _11
REMARK    5  A    between atoms: _11  and  _12
REMARK    6  A    between atoms: _12  and  _13
REMARK    7  A    between atoms: _12  and  _14
REMARK                            x       y       z     vdW  Elec       q    Type
REMARK                         _______ _______ _______ _____ _____    ______ ____
ROOT
ATOM      1  C   UNL     1     -12.564   1.913 -17.543  0.00  0.00    +0.237 C 
ATOM      2  N   UNL     1     -12.038   1.061 -16.608  0.00  0.00    -0.312 N 
ATOM      3  H   UNL     1     -12.033   1.321 -15.630  0.00  0.00    +0.149 HD
ATOM      4  O   UNL     1     -12.717   1.647 -18.729  0.00  0.00    -0.271 OA
ENDROOT
BRANCH   1   6
ATOM      5  C   UNL     1     -12.223   4.065 -16.315  0.00  0.00    +0.096 C 
ATOM      6  C   UNL     1     -13.002   3.207 -16.994  0.00  0.00    +0.074 C 
BRANCH   5   7
ATOM      7  C   UNL     1     -10.790   4.070 -15.955  0.00  0.00    +0.330 C 
ATOM      8  O   UNL     1     -10.090   5.020 -16.283  0.00  0.00    -0.246 OA
BRANCH   7   9
ATOM      9  O   UNL     1     -10.304   3.039 -15.257  0.00  0.00    -0.478 OA
ATOM     10  H   UNL     1      -9.632   2.481 -15.716  0.00  0.00    +0.295 HD
ENDBRANCH   7   9
ENDBRANCH   5   7
ENDBRANCH   1   6
BRANCH   2  11
ATOM     11  C   UNL     1     -11.763  -0.328 -16.940  0.00  0.00    +0.107 C 
BRANCH  11  12
ATOM     12  C   UNL     1     -10.262  -0.695 -16.871  0.00  0.00    -0.000 C 
ATOM     13  C   UNL     1      -9.844  -1.055 -15.477  0.00  0.00    +0.009 C 
ATOM     14  C   UNL     1      -9.398   0.408 -17.501  0.00  0.00    +0.009 C 
ENDBRANCH  11  12
ENDBRANCH   2  11
TORSDOF 5
ENDMDL
MODEL 4
REMARK VINA RESULT:      -5.0      1.901      2.726
REMARK  Name = min_compound96.pdb
REMARK  7 active torsions:
REMARK  status: ('A' for Active; 'I' for Inactive)
REMARK    1  A    between atoms: _2  and  _5
REMARK    2  A    between atoms: _3  and  _8
REMARK    3  A    between atoms: _5  and  _7
REMARK    4  A    between atoms: _10  and  _11
REMARK    5  A    between atoms: _11  and  _12
REMARK    6  A    between atoms: _12  and  _13
REMARK    7  A    between atoms: _12  and  _14
REMARK                            x       y       z     vdW  Elec       q    Type
REMARK                         _______ _______ _______ _____ _____    ______ ____
ROOT
ATOM      1  C   UNL     1     -12.335   1.898 -16.788  0.00  0.00    +0.237 C 
ATOM      2  N   UNL     1     -13.470   2.208 -16.087  0.00  0.00    -0.312 N 
ATOM      3  H   UNL     1     -14.097   1.474 -15.786  0.00  0.00    +0.149 HD
ATOM      4  O   UNL     1     -11.460   2.696 -17.100  0.00  0.00    -0.271 OA
ENDROOT
BRANCH   1   6
ATOM      5  C   UNL     1     -11.201  -0.330 -16.704  0.00  0.00    +0.096 C 
ATOM      6  C   UNL     1     -12.203   0.466 -17.109  0.00  0.00    +0.074 C 
BRANCH   5   7
ATOM      7  C   UNL     1     -10.023  -0.121 -15.837  0.00  0.00    +0.330 C 
ATOM      8  O   UNL     1      -9.120  -0.948 -15.838  0.00  0.00    -0.246 OA
BRANCH   7   9
ATOM      9  O   UNL     1      -9.969   0.987 -15.089  0.00  0.00    -0.478 OA
ATOM     10  H   UNL     1      -9.075   1.384 -14.964  0.00  0.00    +0.295 HD
ENDBRANCH   7   9
ENDBRANCH   5   7
ENDBRANCH   1   6
BRANCH   2  11
ATOM     11  C   UNL     1     -13.644   3.530 -15.505  0.00  0.00    +0.107 C 
BRANCH  11  12
ATOM     12  C   UNL     1     -15.042   3.753 -14.882  0.00  0.00    -0.000 C 
ATOM     13  C   UNL     1     -14.946   4.275 -13.480  0.00  0.00    +0.009 C 
ATOM     14  C   UNL     1     -15.904   2.486 -15.004  0.00  0.00    +0.009 C 
ENDBRANCH  11  12
ENDBRANCH   2  11
TORSDOF 5
ENDMDL
MODEL 5
REMARK VINA RESULT:      -4.9      2.031      4.981
REMARK  Name = min_compound96.pdb
REMARK  7 active torsions:
REMARK  status: ('A' for Active; 'I' for Inactive)
REMARK    1  A    between atoms: _2  and  _5
REMARK    2  A    between atoms: _3  and  _8
REMARK    3  A    between atoms: _5  and  _7
REMARK    4  A    between atoms: _10  and  _11
REMARK    5  A    between atoms: _11  and  _12
REMARK    6  A    between atoms: _12  and  _13
REMARK    7  A    between atoms: _12  and  _14
REMARK                            x       y       z     vdW  Elec       q    Type
REMARK                         _______ _______ _______ _____ _____    ______ ____
ROOT
ATOM      1  C   UNL     1     -10.999   2.602 -16.212  0.00  0.00    +0.237 C 
ATOM      2  N   UNL     1     -10.999   1.856 -17.361  0.00  0.00    -0.312 N 
ATOM      3  H   UNL     1     -10.517   2.192 -18.184  0.00  0.00    +0.149 HD
ATOM      4  O   UNL     1     -11.455   2.236 -15.136  0.00  0.00    -0.271 OA
ENDROOT
BRANCH   1   6
ATOM      5  C   UNL     1     -10.853   4.981 -16.969  0.00  0.00    +0.096 C 
ATOM      6  C   UNL     1     -10.335   3.910 -16.348  0.00  0.00    +0.074 C 
BRANCH   5   7
ATOM      7  C   UNL     1     -12.151   5.249 -17.621  0.00  0.00    +0.330 C 
ATOM      8  O   UNL     1     -12.782   6.254 -17.317  0.00  0.00    -0.246 OA
BRANCH   7   9
ATOM      9  O   UNL     1     -12.590   4.390 -18.547  0.00  0.00    -0.478 OA
ATOM     10  H   UNL     1     -11.976   3.655 -18.783  0.00  0.00    +0.295 HD
ENDBRANCH   7   9
ENDBRANCH   5   7
ENDBRANCH   1   6
BRANCH   2  11
ATOM     11  C   UNL     1     -11.415   0.463 -17.341  0.00  0.00    +0.107 C 
BRANCH  11  12
ATOM     12  C   UNL     1     -10.251  -0.529 -17.112  0.00  0.00    -0.000 C 
ATOM     13  C   UNL     1     -10.185  -0.985 -15.686  0.00  0.00    +0.009 C 
ATOM     14  C   UNL     1      -8.926   0.055 -17.627  0.00  0.00    +0.009 C 
ENDBRANCH  11  12
ENDBRANCH   2  11
TORSDOF 5
ENDMDL
MODEL 6
REMARK VINA RESULT:      -4.8     12.969     13.748
REMARK  Name = min_compound96.pdb
REMARK  7 active torsions:
REMARK  status: ('A' for Active; 'I' for Inactive)
REMARK    1  A    between atoms: _2  and  _5
REMARK    2  A    between atoms: _3  and  _8
REMARK    3  A    between atoms: _5  and  _7
REMARK    4  A    between atoms: _10  and  _11
REMARK    5  A    between atoms: _11  and  _12
REMARK    6  A    between atoms: _12  and  _13
REMARK    7  A    between atoms: _12  and  _14
REMARK                            x       y       z     vdW  Elec       q    Type
REMARK                         _______ _______ _______ _____ _____    ______ ____
ROOT
ATOM      1  C   UNL     1     -14.623  -1.599  -3.499  0.00  0.00    +0.237 C 
ATOM      2  N   UNL     1     -14.424  -1.619  -4.854  0.00  0.00    -0.312 N 
ATOM      3  H   UNL     1     -14.789  -2.382  -5.410  0.00  0.00    +0.149 HD
ATOM      4  O   UNL     1     -14.322  -0.672  -2.758  0.00  0.00    -0.271 OA
ENDROOT
BRANCH   1   6
ATOM      5  C   UNL     1     -14.747  -3.718  -2.176  0.00  0.00    +0.096 C 
ATOM      6  C   UNL     1     -15.305  -2.796  -2.977  0.00  0.00    +0.074 C 
BRANCH   5   7
ATOM      7  C   UNL     1     -13.420  -3.841  -1.537  0.00  0.00    +0.330 C 
ATOM      8  O   UNL     1     -12.833  -4.915  -1.571  0.00  0.00    -0.246 OA
BRANCH   7   9
ATOM      9  O   UNL     1     -12.889  -2.760  -0.956  0.00  0.00    -0.478 OA
ATOM     10  H   UNL     1     -13.256  -1.890  -1.239  0.00  0.00    +0.295 HD
ENDBRANCH   7   9
ENDBRANCH   5   7
ENDBRANCH   1   6
BRANCH   2  11
ATOM     11  C   UNL     1     -13.968  -0.429  -5.555  0.00  0.00    +0.107 C 
BRANCH  11  12
ATOM     12  C   UNL     1     -14.652  -0.216  -6.925  0.00  0.00    -0.000 C 
ATOM     13  C   UNL     1     -14.723   1.237  -7.288  0.00  0.00    +0.009 C 
ATOM     14  C   UNL     1     -16.015  -0.924  -6.972  0.00  0.00    +0.009 C 
ENDBRANCH  11  12
ENDBRANCH   2  11
TORSDOF 5
ENDMDL
MODEL 7
REMARK VINA RESULT:      -4.7      2.666      5.319
REMARK  Name = min_compound96.pdb
REMARK  7 active torsions:
REMARK  status: ('A' for Active; 'I' for Inactive)
REMARK    1  A    between atoms: _2  and  _5
REMARK    2  A    between atoms: _3  and  _8
REMARK    3  A    between atoms: _5  and  _7
REMARK    4  A    between atoms: _10  and  _11
REMARK    5  A    between atoms: _11  and  _12
REMARK    6  A    between atoms: _12  and  _13
REMARK    7  A    between atoms: _12  and  _14
REMARK                            x       y       z     vdW  Elec       q    Type
REMARK                         _______ _______ _______ _____ _____    ______ ____
ROOT
ATOM      1  C   UNL     1     -11.480   3.953 -16.555  0.00  0.00    +0.237 C 
ATOM      2  N   UNL     1     -11.553   2.717 -17.140  0.00  0.00    -0.312 N 
ATOM      3  H   UNL     1     -12.375   2.452 -17.667  0.00  0.00    +0.149 HD
ATOM      4  O   UNL     1     -10.490   4.409 -15.995  0.00  0.00    -0.271 OA
ENDROOT
BRANCH   1   6
ATOM      5  C   UNL     1     -12.866   5.781 -17.551  0.00  0.00    +0.096 C 
ATOM      6  C   UNL     1     -12.706   4.756 -16.698  0.00  0.00    +0.074 C 
BRANCH   5   7
ATOM      7  C   UNL     1     -12.005   6.384 -18.589  0.00  0.00    +0.330 C 
ATOM      8  O   UNL     1     -11.793   5.770 -19.628  0.00  0.00    -0.246 OA
BRANCH   7   9
ATOM      9  O   UNL     1     -11.498   7.602 -18.369  0.00  0.00    -0.478 OA
ATOM     10  H   UNL     1     -12.099   8.251 -17.933  0.00  0.00    +0.295 HD
ENDBRANCH   7   9
ENDBRANCH   5   7
ENDBRANCH   1   6
BRANCH   2  11
ATOM     11  C   UNL     1     -10.364   1.891 -17.280  0.00  0.00    +0.107 C 
BRANCH  11  12
ATOM     12  C   UNL     1     -10.472   0.523 -16.566  0.00  0.00    -0.000 C 
ATOM     13  C   UNL     1      -9.352  -0.394 -16.954  0.00  0.00    +0.009 C 
ATOM     14  C   UNL     1     -11.865  -0.093 -16.773  0.00  0.00    +0.009 C 
ENDBRANCH  11  12
ENDBRANCH   2  11
TORSDOF 5
ENDMDL
MODEL 8
REMARK VINA RESULT:      -4.7     11.606     12.337
REMARK  Name = min_compound96.pdb
REMARK  7 active torsions:
REMARK  status: ('A' for Active; 'I' for Inactive)
REMARK    1  A    between atoms: _2  and  _5
REMARK    2  A    between atoms: _3  and  _8
REMARK    3  A    between atoms: _5  and  _7
REMARK    4  A    between atoms: _10  and  _11
REMARK    5  A    between atoms: _11  and  _12
REMARK    6  A    between atoms: _12  and  _13
REMARK    7  A    between atoms: _12  and  _14
REMARK                            x       y       z     vdW  Elec       q    Type
REMARK                         _______ _______ _______ _____ _____    ______ ____
ROOT
ATOM      1  C   UNL     1     -15.178   0.340  -7.053  0.00  0.00    +0.237 C 
ATOM      2  N   UNL     1     -14.706  -0.309  -5.943  0.00  0.00    -0.312 N 
ATOM      3  H   UNL     1     -14.998  -1.257  -5.746  0.00  0.00    +0.149 HD
ATOM      4  O   UNL     1     -14.803   1.440  -7.437  0.00  0.00    -0.271 OA
ENDROOT
BRANCH   1   6
ATOM      5  C   UNL     1     -17.341  -0.883  -7.339  0.00  0.00    +0.096 C 
ATOM      6  C   UNL     1     -16.172  -0.433  -7.819  0.00  0.00    +0.074 C 
BRANCH   5   7
ATOM      7  C   UNL     1     -18.028  -0.743  -6.038  0.00  0.00    +0.330 C 
ATOM      8  O   UNL     1     -18.497   0.342  -5.718  0.00  0.00    -0.246 OA
BRANCH   7   9
ATOM      9  O   UNL     1     -18.135  -1.821  -5.254  0.00  0.00    -0.478 OA
ATOM     10  H   UNL     1     -17.583  -2.599  -5.507  0.00  0.00    +0.295 HD
ENDBRANCH   7   9
ENDBRANCH   5   7
ENDBRANCH   1   6
BRANCH   2  11
ATOM     11  C   UNL     1     -13.569   0.217  -5.204  0.00  0.00    +0.107 C 
BRANCH  11  12
ATOM     12  C   UNL     1     -13.925   0.695  -3.777  0.00  0.00    -0.000 C 
ATOM     13  C   UNL     1     -15.305   0.268  -3.378  0.00  0.00    +0.009 C 
ATOM     14  C   UNL     1     -13.688   2.206  -3.631  0.00  0.00    +0.009 C 
ENDBRANCH  11  12
ENDBRANCH   2  11
TORSDOF 5
ENDMDL
MODEL 9
REMARK VINA RESULT:      -4.7      2.181      4.967
REMARK  Name = min_compound96.pdb
REMARK  7 active torsions:
REMARK  status: ('A' for Active; 'I' for Inactive)
REMARK    1  A    between atoms: _2  and  _5
REMARK    2  A    between atoms: _3  and  _8
REMARK    3  A    between atoms: _5  and  _7
REMARK    4  A    between atoms: _10  and  _11
REMARK    5  A    between atoms: _11  and  _12
REMARK    6  A    between atoms: _12  and  _13
REMARK    7  A    between atoms: _12  and  _14
REMARK                            x       y       z     vdW  Elec       q    Type
REMARK                         _______ _______ _______ _____ _____    ______ ____
ROOT
ATOM      1  C   UNL     1     -10.973   3.695 -16.089  0.00  0.00    +0.237 C 
ATOM      2  N   UNL     1     -11.243   2.355 -16.171  0.00  0.00    -0.312 N 
ATOM      3  H   UNL     1     -11.927   2.015 -16.835  0.00  0.00    +0.149 HD
ATOM      4  O   UNL     1     -10.090   4.193 -15.402  0.00  0.00    -0.271 OA
ENDROOT
BRANCH   1   6
ATOM      5  C   UNL     1     -13.144   4.685 -16.839  0.00  0.00    +0.096 C 
ATOM      6  C   UNL     1     -11.816   4.531 -16.961  0.00  0.00    +0.074 C 
BRANCH   5   7
ATOM      7  C   UNL     1     -14.140   4.190 -15.866  0.00  0.00    +0.330 C 
ATOM      8  O   UNL     1     -14.825   4.992 -15.244  0.00  0.00    -0.246 OA
BRANCH   7   9
ATOM      9  O   UNL     1     -14.277   2.868 -15.710  0.00  0.00    -0.478 OA
ATOM     10  H   UNL     1     -15.055   2.457 -16.156  0.00  0.00    +0.295 HD
ENDBRANCH   7   9
ENDBRANCH   5   7
ENDBRANCH   1   6
BRANCH   2  11
ATOM     11  C   UNL     1     -10.363   1.381 -15.546  0.00  0.00    +0.107 C 
BRANCH  11  12
ATOM     12  C   UNL     1     -10.466  -0.033 -16.164  0.00  0.00    -0.000 C 
ATOM     13  C   UNL     1      -9.382  -0.278 -17.170  0.00  0.00    +0.009 C 
ATOM     14  C   UNL     1     -11.878  -0.288 -16.714  0.00  0.00    +0.009 C 
ENDBRANCH  11  12
ENDBRANCH   2  11
TORSDOF 5
ENDMDL
