MODEL 1
REMARK VINA RESULT:      -7.9      0.000      0.000
REMARK  Name = min_compound933.pdb
REMARK  6 active torsions:
REMARK  status: ('A' for Active; 'I' for Inactive)
REMARK    1  A    between atoms: _2  and  _18
REMARK    2  A    between atoms: _11  and  _12
REMARK    3  A    between atoms: _17  and  _19
REMARK    4  A    between atoms: _19  and  _20
REMARK    5  A    between atoms: _19  and  _21
REMARK    6  A    between atoms: _19  and  _22
REMARK                            x       y       z     vdW  Elec       q    Type
REMARK                         _______ _______ _______ _____ _____    ______ ____
ROOT
ATOM      1  C   UNL     1     -17.229   8.872 -16.100  0.00  0.00    +0.093 A 
ATOM      2  C   UNL     1     -16.431   9.637 -16.885  0.00  0.00    +0.020 A 
ATOM      3  C   UNL     1     -16.697  11.046 -17.329  0.00  0.00    +0.063 C 
ATOM      4  N   UNL     1     -15.198   9.012 -17.310  0.00  0.00    -0.343 N 
ATOM      5  H   UNL     1     -14.603   9.597 -17.895  0.00  0.00    +0.167 HD
ATOM      6  C   UNL     1     -14.805   7.716 -16.981  0.00  0.00    +0.138 A 
ATOM      7  C   UNL     1     -13.719   6.874 -17.238  0.00  0.00    +0.076 A 
ATOM      8  C   UNL     1     -13.948   5.599 -16.555  0.00  0.00    +0.095 A 
ATOM      9  N   UNL     1     -15.140   5.696 -15.915  0.00  0.00    -0.162 NA
ATOM     10  N   UNL     1     -15.638   6.964 -16.183  0.00  0.00    -0.180 N 
ATOM     11  C   UNL     1     -16.873   7.455 -15.693  0.00  0.00    +0.275 A 
ATOM     12  O   UNL     1     -17.604   6.772 -14.985  0.00  0.00    -0.266 OA
ENDROOT
BRANCH   8  13
ATOM     13  C   UNL     1     -13.073   4.316 -16.479  0.00  0.00    +0.002 A 
ATOM     14  C   UNL     1     -11.672   4.282 -16.461  0.00  0.00    +0.010 A 
ATOM     15  C   UNL     1     -10.882   3.035 -16.356  0.00  0.00    +0.005 A 
ATOM     16  C   UNL     1     -11.382   1.694 -16.178  0.00  0.00    -0.042 A 
ATOM     17  C   UNL     1     -12.801   1.782 -16.347  0.00  0.00    +0.005 A 
ATOM     18  C   UNL     1     -13.606   3.016 -16.454  0.00  0.00    +0.010 A 
BRANCH  16  19
ATOM     19  C   UNL     1     -10.483   0.497 -16.074  0.00  0.00    -0.013 C 
ATOM     20  C   UNL     1      -9.585  -0.699 -15.970  0.00  0.00    +0.015 C 
ATOM     21  C   UNL     1      -9.683   0.882 -17.508  0.00  0.00    +0.015 C 
ATOM     22  C   UNL     1     -11.713  -0.511 -16.642  0.00  0.00    +0.015 C 
ENDBRANCH  16  19
ENDBRANCH   8  13
TORSDOF 2
ENDMDL
MODEL 2
REMARK VINA RESULT:      -7.8      0.248      1.029
REMARK  Name = min_compound933.pdb
REMARK  6 active torsions:
REMARK  status: ('A' for Active; 'I' for Inactive)
REMARK    1  A    between atoms: _2  and  _18
REMARK    2  A    between atoms: _11  and  _12
REMARK    3  A    between atoms: _17  and  _19
REMARK    4  A    between atoms: _19  and  _20
REMARK    5  A    between atoms: _19  and  _21
REMARK    6  A    between atoms: _19  and  _22
REMARK                            x       y       z     vdW  Elec       q    Type
REMARK                         _______ _______ _______ _____ _____    ______ ____
ROOT
ATOM      1  C   UNL     1     -17.359   8.632 -16.310  0.00  0.00    +0.093 A 
ATOM      2  C   UNL     1     -16.497   9.438 -16.979  0.00  0.00    +0.020 A 
ATOM      3  C   UNL     1     -16.748  10.853 -17.412  0.00  0.00    +0.063 C 
ATOM      4  N   UNL     1     -15.208   8.855 -17.276  0.00  0.00    -0.343 N 
ATOM      5  H   UNL     1     -14.566   9.471 -17.773  0.00  0.00    +0.167 HD
ATOM      6  C   UNL     1     -14.821   7.559 -16.939  0.00  0.00    +0.138 A 
ATOM      7  C   UNL     1     -13.691   6.750 -17.093  0.00  0.00    +0.076 A 
ATOM      8  C   UNL     1     -13.963   5.451 -16.475  0.00  0.00    +0.095 A 
ATOM      9  N   UNL     1     -15.222   5.501 -15.973  0.00  0.00    -0.162 NA
ATOM     10  N   UNL     1     -15.719   6.765 -16.262  0.00  0.00    -0.180 N 
ATOM     11  C   UNL     1     -17.014   7.213 -15.903  0.00  0.00    +0.275 A 
ATOM     12  O   UNL     1     -17.803   6.492 -15.302  0.00  0.00    -0.266 OA
ENDROOT
BRANCH   8  13
ATOM     13  C   UNL     1     -13.069   4.186 -16.333  0.00  0.00    +0.002 A 
ATOM     14  C   UNL     1     -13.517   2.859 -16.391  0.00  0.00    +0.010 A 
ATOM     15  C   UNL     1     -12.621   1.685 -16.281  0.00  0.00    +0.005 A 
ATOM     16  C   UNL     1     -11.182   1.687 -16.182  0.00  0.00    -0.042 A 
ATOM     17  C   UNL     1     -10.808   3.056 -15.987  0.00  0.00    +0.005 A 
ATOM     18  C   UNL     1     -11.686   4.239 -16.091  0.00  0.00    +0.010 A 
BRANCH  16  19
ATOM     19  C   UNL     1     -10.371   0.429 -16.085  0.00  0.00    -0.013 C 
ATOM     20  C   UNL     1      -9.560  -0.828 -15.987  0.00  0.00    +0.015 C 
ATOM     21  C   UNL     1      -9.572   0.745 -17.537  0.00  0.00    +0.015 C 
ATOM     22  C   UNL     1     -11.681  -0.491 -16.621  0.00  0.00    +0.015 C 
ENDBRANCH  16  19
ENDBRANCH   8  13
TORSDOF 2
ENDMDL
MODEL 3
REMARK VINA RESULT:      -7.3      1.740      1.947
REMARK  Name = min_compound933.pdb
REMARK  6 active torsions:
REMARK  status: ('A' for Active; 'I' for Inactive)
REMARK    1  A    between atoms: _2  and  _18
REMARK    2  A    between atoms: _11  and  _12
REMARK    3  A    between atoms: _17  and  _19
REMARK    4  A    between atoms: _19  and  _20
REMARK    5  A    between atoms: _19  and  _21
REMARK    6  A    between atoms: _19  and  _22
REMARK                            x       y       z     vdW  Elec       q    Type
REMARK                         _______ _______ _______ _____ _____    ______ ____
ROOT
ATOM      1  C   UNL     1     -17.049   9.015 -18.654  0.00  0.00    +0.093 A 
ATOM      2  C   UNL     1     -16.457   9.795 -17.716  0.00  0.00    +0.020 A 
ATOM      3  C   UNL     1     -16.894  11.164 -17.284  0.00  0.00    +0.063 C 
ATOM      4  N   UNL     1     -15.298   9.217 -17.073  0.00  0.00    -0.343 N 
ATOM      5  H   UNL     1     -14.863   9.809 -16.365  0.00  0.00    +0.167 HD
ATOM      6  C   UNL     1     -14.769   7.960 -17.359  0.00  0.00    +0.138 A 
ATOM      7  C   UNL     1     -13.701   7.169 -16.924  0.00  0.00    +0.076 A 
ATOM      8  C   UNL     1     -13.727   5.906 -17.664  0.00  0.00    +0.095 A 
ATOM      9  N   UNL     1     -14.785   5.959 -18.511  0.00  0.00    -0.162 NA
ATOM     10  N   UNL     1     -15.393   7.192 -18.317  0.00  0.00    -0.180 N 
ATOM     11  C   UNL     1     -16.540   7.634 -19.021  0.00  0.00    +0.275 A 
ATOM     12  O   UNL     1     -17.082   6.940 -19.873  0.00  0.00    -0.266 OA
ENDROOT
BRANCH   8  13
ATOM     13  C   UNL     1     -12.800   4.660 -17.580  0.00  0.00    +0.002 A 
ATOM     14  C   UNL     1     -11.518   4.633 -17.013  0.00  0.00    +0.010 A 
ATOM     15  C   UNL     1     -10.683   3.412 -16.929  0.00  0.00    +0.005 A 
ATOM     16  C   UNL     1     -11.049   2.073 -17.320  0.00  0.00    -0.042 A 
ATOM     17  C   UNL     1     -12.296   2.197 -18.012  0.00  0.00    +0.005 A 
ATOM     18  C   UNL     1     -13.142   3.404 -18.109  0.00  0.00    +0.010 A 
BRANCH  16  19
ATOM     19  C   UNL     1     -10.121   0.903 -17.180  0.00  0.00    -0.013 C 
ATOM     20  C   UNL     1      -9.193  -0.268 -17.040  0.00  0.00    +0.015 C 
ATOM     21  C   UNL     1     -11.363  -0.208 -17.444  0.00  0.00    +0.015 C 
ATOM     22  C   UNL     1     -10.154   1.041 -15.497  0.00  0.00    +0.015 C 
ENDBRANCH  16  19
ENDBRANCH   8  13
TORSDOF 2
ENDMDL
MODEL 4
REMARK VINA RESULT:      -7.0      9.046      9.857
REMARK  Name = min_compound933.pdb
REMARK  6 active torsions:
REMARK  status: ('A' for Active; 'I' for Inactive)
REMARK    1  A    between atoms: _2  and  _18
REMARK    2  A    between atoms: _11  and  _12
REMARK    3  A    between atoms: _17  and  _19
REMARK    4  A    between atoms: _19  and  _20
REMARK    5  A    between atoms: _19  and  _21
REMARK    6  A    between atoms: _19  and  _22
REMARK                            x       y       z     vdW  Elec       q    Type
REMARK                         _______ _______ _______ _____ _____    ______ ____
ROOT
ATOM      1  C   UNL     1     -16.780   4.989 -13.027  0.00  0.00    +0.093 A 
ATOM      2  C   UNL     1     -18.049   4.513 -13.089  0.00  0.00    +0.020 A 
ATOM      3  C   UNL     1     -19.054   4.784 -14.170  0.00  0.00    +0.063 C 
ATOM      4  N   UNL     1     -18.438   3.647 -11.999  0.00  0.00    -0.343 N 
ATOM      5  H   UNL     1     -19.392   3.290 -12.058  0.00  0.00    +0.167 HD
ATOM      6  C   UNL     1     -17.622   3.297 -10.925  0.00  0.00    +0.138 A 
ATOM      7  C   UNL     1     -17.721   2.518  -9.769  0.00  0.00    +0.076 A 
ATOM      8  C   UNL     1     -16.443   2.579  -9.057  0.00  0.00    +0.095 A 
ATOM      9  N   UNL     1     -15.618   3.377  -9.781  0.00  0.00    -0.162 NA
ATOM     10  N   UNL     1     -16.340   3.798 -10.890  0.00  0.00    -0.180 N 
ATOM     11  C   UNL     1     -15.828   4.653 -11.896  0.00  0.00    +0.275 A 
ATOM     12  O   UNL     1     -14.684   5.092 -11.849  0.00  0.00    -0.266 OA
ENDROOT
BRANCH   8  13
ATOM     13  C   UNL     1     -15.981   1.899  -7.736  0.00  0.00    +0.002 A 
ATOM     14  C   UNL     1     -16.714   1.852  -6.543  0.00  0.00    +0.010 A 
ATOM     15  C   UNL     1     -16.245   1.165  -5.318  0.00  0.00    +0.005 A 
ATOM     16  C   UNL     1     -15.043   0.383  -5.158  0.00  0.00    -0.042 A 
ATOM     17  C   UNL     1     -14.283   0.590  -6.354  0.00  0.00    +0.005 A 
ATOM     18  C   UNL     1     -14.733   1.273  -7.584  0.00  0.00    +0.010 A 
BRANCH  16  19
ATOM     19  C   UNL     1     -14.670  -0.281  -3.866  0.00  0.00    -0.013 C 
ATOM     20  C   UNL     1     -14.297  -0.944  -2.573  0.00  0.00    +0.015 C 
ATOM     21  C   UNL     1     -16.177   0.041  -3.180  0.00  0.00    +0.015 C 
ATOM     22  C   UNL     1     -13.792   1.080  -3.387  0.00  0.00    +0.015 C 
ENDBRANCH  16  19
ENDBRANCH   8  13
TORSDOF 2
ENDMDL
MODEL 5
REMARK VINA RESULT:      -6.9      8.930      9.607
REMARK  Name = min_compound933.pdb
REMARK  6 active torsions:
REMARK  status: ('A' for Active; 'I' for Inactive)
REMARK    1  A    between atoms: _2  and  _18
REMARK    2  A    between atoms: _11  and  _12
REMARK    3  A    between atoms: _17  and  _19
REMARK    4  A    between atoms: _19  and  _20
REMARK    5  A    between atoms: _19  and  _21
REMARK    6  A    between atoms: _19  and  _22
REMARK                            x       y       z     vdW  Elec       q    Type
REMARK                         _______ _______ _______ _____ _____    ______ ____
ROOT
ATOM      1  C   UNL     1     -17.858   6.822 -11.823  0.00  0.00    +0.093 A 
ATOM      2  C   UNL     1     -18.005   5.832 -12.738  0.00  0.00    +0.020 A 
ATOM      3  C   UNL     1     -18.384   5.997 -14.182  0.00  0.00    +0.063 C 
ATOM      4  N   UNL     1     -17.749   4.495 -12.251  0.00  0.00    -0.343 N 
ATOM      5  H   UNL     1     -17.857   3.760 -12.949  0.00  0.00    +0.167 HD
ATOM      6  C   UNL     1     -17.387   4.177 -10.944  0.00  0.00    +0.138 A 
ATOM      7  C   UNL     1     -17.092   3.025 -10.210  0.00  0.00    +0.076 A 
ATOM      8  C   UNL     1     -16.771   3.419  -8.836  0.00  0.00    +0.095 A 
ATOM      9  N   UNL     1     -16.875   4.770  -8.772  0.00  0.00    -0.162 NA
ATOM     10  N   UNL     1     -17.247   5.204 -10.037  0.00  0.00    -0.180 N 
ATOM     11  C   UNL     1     -17.462   6.561 -10.383  0.00  0.00    +0.275 A 
ATOM     12  O   UNL     1     -17.335   7.463  -9.563  0.00  0.00    -0.266 OA
ENDROOT
BRANCH   8  13
ATOM     13  C   UNL     1     -16.355   2.565  -7.604  0.00  0.00    +0.002 A 
ATOM     14  C   UNL     1     -15.414   1.526  -7.611  0.00  0.00    +0.010 A 
ATOM     15  C   UNL     1     -15.029   0.760  -6.404  0.00  0.00    +0.005 A 
ATOM     16  C   UNL     1     -15.466   0.984  -5.048  0.00  0.00    -0.042 A 
ATOM     17  C   UNL     1     -16.519   1.950  -5.134  0.00  0.00    +0.005 A 
ATOM     18  C   UNL     1     -16.919   2.723  -6.327  0.00  0.00    +0.010 A 
BRANCH  16  19
ATOM     19  C   UNL     1     -15.000   0.146  -3.894  0.00  0.00    -0.013 C 
ATOM     20  C   UNL     1     -14.534  -0.691  -2.740  0.00  0.00    +0.015 C 
ATOM     21  C   UNL     1     -13.662   1.137  -3.620  0.00  0.00    +0.015 C 
ATOM     22  C   UNL     1     -14.351  -1.000  -4.951  0.00  0.00    +0.015 C 
ENDBRANCH  16  19
ENDBRANCH   8  13
TORSDOF 2
ENDMDL
MODEL 6
REMARK VINA RESULT:      -6.9      1.676      1.753
REMARK  Name = min_compound933.pdb
REMARK  6 active torsions:
REMARK  status: ('A' for Active; 'I' for Inactive)
REMARK    1  A    between atoms: _2  and  _18
REMARK    2  A    between atoms: _11  and  _12
REMARK    3  A    between atoms: _17  and  _19
REMARK    4  A    between atoms: _19  and  _20
REMARK    5  A    between atoms: _19  and  _21
REMARK    6  A    between atoms: _19  and  _22
REMARK                            x       y       z     vdW  Elec       q    Type
REMARK                         _______ _______ _______ _____ _____    ______ ____
ROOT
ATOM      1  C   UNL     1     -16.459   9.001 -17.645  0.00  0.00    +0.093 A 
ATOM      2  C   UNL     1     -16.926   8.563 -18.841  0.00  0.00    +0.020 A 
ATOM      3  C   UNL     1     -17.882   9.283 -19.747  0.00  0.00    +0.063 C 
ATOM      4  N   UNL     1     -16.422   7.277 -19.268  0.00  0.00    -0.343 N 
ATOM      5  H   UNL     1     -16.775   6.959 -20.171  0.00  0.00    +0.167 HD
ATOM      6  C   UNL     1     -15.530   6.488 -18.545  0.00  0.00    +0.138 A 
ATOM      7  C   UNL     1     -14.897   5.250 -18.694  0.00  0.00    +0.076 A 
ATOM      8  C   UNL     1     -14.051   5.018 -17.522  0.00  0.00    +0.095 A 
ATOM      9  N   UNL     1     -14.187   6.096 -16.709  0.00  0.00    -0.162 NA
ATOM     10  N   UNL     1     -15.076   6.960 -17.334  0.00  0.00    -0.180 N 
ATOM     11  C   UNL     1     -15.484   8.206 -16.799  0.00  0.00    +0.275 A 
ATOM     12  O   UNL     1     -15.071   8.611 -15.718  0.00  0.00    -0.266 OA
ENDROOT
BRANCH   8  13
ATOM     13  C   UNL     1     -13.115   3.828 -17.164  0.00  0.00    +0.002 A 
ATOM     14  C   UNL     1     -12.251   3.772 -16.061  0.00  0.00    +0.010 A 
ATOM     15  C   UNL     1     -11.400   2.603 -15.744  0.00  0.00    +0.005 A 
ATOM     16  C   UNL     1     -11.364   1.334 -16.429  0.00  0.00    -0.042 A 
ATOM     17  C   UNL     1     -12.152   1.509 -17.612  0.00  0.00    +0.005 A 
ATOM     18  C   UNL     1     -13.006   2.667 -17.947  0.00  0.00    +0.010 A 
BRANCH  16  19
ATOM     19  C   UNL     1     -10.464   0.209 -16.012  0.00  0.00    -0.013 C 
ATOM     20  C   UNL     1      -9.564  -0.916 -15.595  0.00  0.00    +0.015 C 
ATOM     21  C   UNL     1      -9.653   0.212 -17.491  0.00  0.00    +0.015 C 
ATOM     22  C   UNL     1     -11.687  -0.917 -16.308  0.00  0.00    +0.015 C 
ENDBRANCH  16  19
ENDBRANCH   8  13
TORSDOF 2
ENDMDL
MODEL 7
REMARK VINA RESULT:      -6.6      6.218      7.451
REMARK  Name = min_compound933.pdb
REMARK  6 active torsions:
REMARK  status: ('A' for Active; 'I' for Inactive)
REMARK    1  A    between atoms: _2  and  _18
REMARK    2  A    between atoms: _11  and  _12
REMARK    3  A    between atoms: _17  and  _19
REMARK    4  A    between atoms: _19  and  _20
REMARK    5  A    between atoms: _19  and  _21
REMARK    6  A    between atoms: _19  and  _22
REMARK                            x       y       z     vdW  Elec       q    Type
REMARK                         _______ _______ _______ _____ _____    ______ ____
ROOT
ATOM      1  C   UNL     1     -17.553   3.853  -6.569  0.00  0.00    +0.093 A 
ATOM      2  C   UNL     1     -17.463   5.207  -6.550  0.00  0.00    +0.020 A 
ATOM      3  C   UNL     1     -17.716   6.105  -5.375  0.00  0.00    +0.063 C 
ATOM      4  N   UNL     1     -17.065   5.817  -7.799  0.00  0.00    -0.343 N 
ATOM      5  H   UNL     1     -16.995   6.834  -7.773  0.00  0.00    +0.167 HD
ATOM      6  C   UNL     1     -16.792   5.124  -8.976  0.00  0.00    +0.138 A 
ATOM      7  C   UNL     1     -16.408   5.430 -10.285  0.00  0.00    +0.076 A 
ATOM      8  C   UNL     1     -16.285   4.179 -11.037  0.00  0.00    +0.095 A 
ATOM      9  N   UNL     1     -16.591   3.168 -10.186  0.00  0.00    -0.162 NA
ATOM     10  N   UNL     1     -16.894   3.751  -8.963  0.00  0.00    -0.180 N 
ATOM     11  C   UNL     1     -17.268   3.025  -7.806  0.00  0.00    +0.275 A 
ATOM     12  O   UNL     1     -17.356   1.802  -7.812  0.00  0.00    -0.266 OA
ENDROOT
BRANCH   8  13
ATOM     13  C   UNL     1     -15.875   3.918 -12.515  0.00  0.00    +0.002 A 
ATOM     14  C   UNL     1     -14.837   4.564 -13.201  0.00  0.00    +0.010 A 
ATOM     15  C   UNL     1     -14.463   4.260 -14.600  0.00  0.00    +0.005 A 
ATOM     16  C   UNL     1     -15.015   3.233 -15.451  0.00  0.00    -0.042 A 
ATOM     17  C   UNL     1     -16.150   2.715 -14.748  0.00  0.00    +0.005 A 
ATOM     18  C   UNL     1     -16.540   3.008 -13.353  0.00  0.00    +0.010 A 
BRANCH  16  19
ATOM     19  C   UNL     1     -14.551   3.006 -16.859  0.00  0.00    -0.013 C 
ATOM     20  C   UNL     1     -14.086   2.779 -18.267  0.00  0.00    +0.015 C 
ATOM     21  C   UNL     1     -13.427   1.843 -16.379  0.00  0.00    +0.015 C 
ATOM     22  C   UNL     1     -13.614   4.411 -16.807  0.00  0.00    +0.015 C 
ENDBRANCH  16  19
ENDBRANCH   8  13
TORSDOF 2
ENDMDL
MODEL 8
REMARK VINA RESULT:      -6.6      7.741      9.214
REMARK  Name = min_compound933.pdb
REMARK  6 active torsions:
REMARK  status: ('A' for Active; 'I' for Inactive)
REMARK    1  A    between atoms: _2  and  _18
REMARK    2  A    between atoms: _11  and  _12
REMARK    3  A    between atoms: _17  and  _19
REMARK    4  A    between atoms: _19  and  _20
REMARK    5  A    between atoms: _19  and  _21
REMARK    6  A    between atoms: _19  and  _22
REMARK                            x       y       z     vdW  Elec       q    Type
REMARK                         _______ _______ _______ _____ _____    ______ ____
ROOT
ATOM      1  C   UNL     1     -17.979   4.543  -4.901  0.00  0.00    +0.093 A 
ATOM      2  C   UNL     1     -17.874   3.203  -4.718  0.00  0.00    +0.020 A 
ATOM      3  C   UNL     1     -18.135   2.451  -3.445  0.00  0.00    +0.063 C 
ATOM      4  N   UNL     1     -17.486   2.447  -5.887  0.00  0.00    -0.343 N 
ATOM      5  H   UNL     1     -17.416   1.441  -5.740  0.00  0.00    +0.167 HD
ATOM      6  C   UNL     1     -17.213   2.995  -7.139  0.00  0.00    +0.138 A 
ATOM      7  C   UNL     1     -16.826   2.536  -8.401  0.00  0.00    +0.076 A 
ATOM      8  C   UNL     1     -16.721   3.686  -9.301  0.00  0.00    +0.095 A 
ATOM      9  N   UNL     1     -17.040   4.790  -8.581  0.00  0.00    -0.162 NA
ATOM     10  N   UNL     1     -17.327   4.359  -7.292  0.00  0.00    -0.180 N 
ATOM     11  C   UNL     1     -17.704   5.217  -6.231  0.00  0.00    +0.275 A 
ATOM     12  O   UNL     1     -17.799   6.430  -6.384  0.00  0.00    -0.266 OA
ENDROOT
BRANCH   8  13
ATOM     13  C   UNL     1     -16.350   3.765 -10.810  0.00  0.00    +0.002 A 
ATOM     14  C   UNL     1     -17.019   3.106 -11.851  0.00  0.00    +0.010 A 
ATOM     15  C   UNL     1     -16.646   3.237 -13.278  0.00  0.00    +0.005 A 
ATOM     16  C   UNL     1     -15.629   4.089 -13.843  0.00  0.00    -0.042 A 
ATOM     17  C   UNL     1     -14.900   4.616 -12.729  0.00  0.00    +0.005 A 
ATOM     18  C   UNL     1     -15.254   4.496 -11.300  0.00  0.00    +0.010 A 
BRANCH  16  19
ATOM     19  C   UNL     1     -15.342   4.148 -15.314  0.00  0.00    -0.013 C 
ATOM     20  C   UNL     1     -15.054   4.207 -16.785  0.00  0.00    +0.015 C 
ATOM     21  C   UNL     1     -16.027   2.630 -15.584  0.00  0.00    +0.015 C 
ATOM     22  C   UNL     1     -13.726   3.738 -15.045  0.00  0.00    +0.015 C 
ENDBRANCH  16  19
ENDBRANCH   8  13
TORSDOF 2
ENDMDL
MODEL 9
REMARK VINA RESULT:      -6.5     11.052     13.434
REMARK  Name = min_compound933.pdb
REMARK  6 active torsions:
REMARK  status: ('A' for Active; 'I' for Inactive)
REMARK    1  A    between atoms: _2  and  _18
REMARK    2  A    between atoms: _11  and  _12
REMARK    3  A    between atoms: _17  and  _19
REMARK    4  A    between atoms: _19  and  _20
REMARK    5  A    between atoms: _19  and  _21
REMARK    6  A    between atoms: _19  and  _22
REMARK                            x       y       z     vdW  Elec       q    Type
REMARK                         _______ _______ _______ _____ _____    ______ ____
ROOT
ATOM      1  C   UNL     1     -15.918  -2.053  -2.227  0.00  0.00    +0.093 A 
ATOM      2  C   UNL     1     -14.949  -2.733  -2.889  0.00  0.00    +0.020 A 
ATOM      3  C   UNL     1     -14.220  -3.952  -2.404  0.00  0.00    +0.063 C 
ATOM      4  N   UNL     1     -14.616  -2.217  -4.198  0.00  0.00    -0.343 N 
ATOM      5  H   UNL     1     -13.890  -2.739  -4.690  0.00  0.00    +0.167 HD
ATOM      6  C   UNL     1     -15.202  -1.101  -4.790  0.00  0.00    +0.138 A 
ATOM      7  C   UNL     1     -15.086  -0.392  -5.990  0.00  0.00    +0.076 A 
ATOM      8  C   UNL     1     -16.042   0.718  -5.967  0.00  0.00    +0.095 A 
ATOM      9  N   UNL     1     -16.699   0.657  -4.782  0.00  0.00    -0.162 NA
ATOM     10  N   UNL     1     -16.182  -0.431  -4.092  0.00  0.00    -0.180 N 
ATOM     11  C   UNL     1     -16.609  -0.832  -2.802  0.00  0.00    +0.275 A 
ATOM     12  O   UNL     1     -17.482  -0.224  -2.193  0.00  0.00    -0.266 OA
ENDROOT
BRANCH   8  13
ATOM     13  C   UNL     1     -16.358   1.808  -7.030  0.00  0.00    +0.002 A 
ATOM     14  C   UNL     1     -17.096   2.978  -6.805  0.00  0.00    +0.010 A 
ATOM     15  C   UNL     1     -17.346   4.004  -7.844  0.00  0.00    +0.005 A 
ATOM     16  C   UNL     1     -16.830   4.030  -9.190  0.00  0.00    -0.042 A 
ATOM     17  C   UNL     1     -16.212   2.755  -9.395  0.00  0.00    +0.005 A 
ATOM     18  C   UNL     1     -15.956   1.719  -8.374  0.00  0.00    +0.010 A 
BRANCH  16  19
ATOM     19  C   UNL     1     -17.142   5.132 -10.160  0.00  0.00    -0.013 C 
ATOM     20  C   UNL     1     -17.454   6.233 -11.129  0.00  0.00    +0.015 C 
ATOM     21  C   UNL     1     -15.638   4.995 -10.912  0.00  0.00    +0.015 C 
ATOM     22  C   UNL     1     -16.818   6.299  -8.983  0.00  0.00    +0.015 C 
ENDBRANCH  16  19
ENDBRANCH   8  13
TORSDOF 2
ENDMDL
