MODEL 1
REMARK VINA RESULT:      -5.4      0.000      0.000
REMARK  Name = min_compound97.pdb
REMARK  4 active torsions:
REMARK  status: ('A' for Active; 'I' for Inactive)
REMARK    1  A    between atoms: _5  and  _12
REMARK    2  A    between atoms: _5  and  _14
REMARK    3  A    between atoms: _9  and  _10
REMARK    4  A    between atoms: _14  and  _15
REMARK                            x       y       z     vdW  Elec       q    Type
REMARK                         _______ _______ _______ _____ _____    ______ ____
ROOT
ATOM      1  C   UNL     1     -13.913   0.128  -6.141  0.00  0.00    +0.074 C 
ATOM      2  C   UNL     1     -14.794  -0.875  -6.025  0.00  0.00    +0.245 C 
ATOM      3  O   UNL     1     -15.887  -0.943  -6.889  0.00  0.00    -0.269 OA
ATOM      4  O   UNL     1     -16.438   0.422  -7.078  0.00  0.00    -0.247 OA
ATOM      5  C   UNL     1     -15.435   1.248  -7.590  0.00  0.00    +0.332 C 
ATOM      6  C   UNL     1     -14.184   1.146  -7.120  0.00  0.00    +0.096 C 
ENDROOT
BRANCH   2   7
ATOM      7  N   UNL     1     -14.598  -1.899  -5.137  0.00  0.00    -0.237 N 
ATOM      8  H   UNL     1     -14.035  -2.679  -5.441  0.00  0.00    +0.159 HD
ATOM      9  C   UNL     1     -14.922  -1.891  -3.808  0.00  0.00    +0.304 C 
ATOM     10  O   UNL     1     -15.396  -0.975  -3.155  0.00  0.00    -0.253 OA
ATOM     11  N   UNL     1     -14.631  -3.080  -3.206  0.00  0.00    -0.313 N 
ATOM     12  H   UNL     1     -14.849  -3.921  -3.722  0.00  0.00    +0.146 HD
ATOM     13  H   UNL     1     -14.937  -3.103  -2.240  0.00  0.00    +0.146 HD
ENDBRANCH   2   7
BRANCH   5  14
ATOM     14  O   UNL     1     -15.767   2.291  -8.429  0.00  0.00    -0.457 OA
BRANCH  14  15
ATOM     15  C   UNL     1     -17.020   2.085  -9.082  0.00  0.00    +0.259 C 
BRANCH  15  16
ATOM     16  C   UNL     1     -17.212   3.200 -10.070  0.00  0.00    +0.006 C 
ATOM     17  C   UNL     1     -17.187   3.055 -11.402  0.00  0.00    +0.007 C 
ENDBRANCH  15  16
ENDBRANCH  14  15
ENDBRANCH   5  14
TORSDOF 4
ENDMDL
MODEL 2
REMARK VINA RESULT:      -5.4     11.169     11.971
REMARK  Name = min_compound97.pdb
REMARK  4 active torsions:
REMARK  status: ('A' for Active; 'I' for Inactive)
REMARK    1  A    between atoms: _5  and  _12
REMARK    2  A    between atoms: _5  and  _14
REMARK    3  A    between atoms: _9  and  _10
REMARK    4  A    between atoms: _14  and  _15
REMARK                            x       y       z     vdW  Elec       q    Type
REMARK                         _______ _______ _______ _____ _____    ______ ____
ROOT
ATOM      1  C   UNL     1     -10.345   3.384 -15.939  0.00  0.00    +0.074 C 
ATOM      2  C   UNL     1     -11.004   2.285 -16.333  0.00  0.00    +0.245 C 
ATOM      3  O   UNL     1     -11.993   2.382 -17.312  0.00  0.00    -0.269 OA
ATOM      4  O   UNL     1     -12.800   3.603 -17.062  0.00  0.00    -0.247 OA
ATOM      5  C   UNL     1     -11.956   4.715 -17.080  0.00  0.00    +0.332 C 
ATOM      6  C   UNL     1     -10.749   4.644 -16.502  0.00  0.00    +0.096 C 
ENDROOT
BRANCH   2   7
ATOM      7  N   UNL     1     -10.665   1.043 -15.866  0.00  0.00    -0.237 N 
ATOM      8  H   UNL     1     -11.217   0.662 -15.113  0.00  0.00    +0.159 HD
ATOM      9  C   UNL     1      -9.777   0.176 -16.441  0.00  0.00    +0.304 C 
ATOM     10  O   UNL     1      -9.160   0.315 -17.486  0.00  0.00    -0.253 OA
ATOM     11  N   UNL     1      -9.635  -0.967 -15.710  0.00  0.00    -0.313 N 
ATOM     12  H   UNL     1      -9.585  -0.864 -14.706  0.00  0.00    +0.146 HD
ATOM     13  H   UNL     1      -8.924  -1.578 -16.094  0.00  0.00    +0.146 HD
ENDBRANCH   2   7
BRANCH   5  14
ATOM     14  O   UNL     1     -12.435   5.933 -17.514  0.00  0.00    -0.457 OA
BRANCH  14  15
ATOM     15  C   UNL     1     -12.587   5.984 -18.932  0.00  0.00    +0.259 C 
BRANCH  15  16
ATOM     16  C   UNL     1     -11.707   7.085 -19.451  0.00  0.00    +0.006 C 
ATOM     17  C   UNL     1     -11.320   7.219 -20.727  0.00  0.00    +0.007 C 
ENDBRANCH  15  16
ENDBRANCH  14  15
ENDBRANCH   5  14
TORSDOF 4
ENDMDL
MODEL 3
REMARK VINA RESULT:      -5.2      9.154     10.298
REMARK  Name = min_compound97.pdb
REMARK  4 active torsions:
REMARK  status: ('A' for Active; 'I' for Inactive)
REMARK    1  A    between atoms: _5  and  _12
REMARK    2  A    between atoms: _5  and  _14
REMARK    3  A    between atoms: _9  and  _10
REMARK    4  A    between atoms: _14  and  _15
REMARK                            x       y       z     vdW  Elec       q    Type
REMARK                         _______ _______ _______ _____ _____    ______ ____
ROOT
ATOM      1  C   UNL     1     -13.169   1.540 -16.648  0.00  0.00    +0.074 C 
ATOM      2  C   UNL     1     -11.903   1.964 -16.537  0.00  0.00    +0.245 C 
ATOM      3  O   UNL     1     -11.604   3.048 -15.711  0.00  0.00    -0.269 OA
ATOM      4  O   UNL     1     -12.652   4.085 -15.878  0.00  0.00    -0.247 OA
ATOM      5  C   UNL     1     -13.893   3.529 -15.558  0.00  0.00    +0.332 C 
ATOM      6  C   UNL     1     -14.187   2.283 -15.956  0.00  0.00    +0.096 C 
ENDROOT
BRANCH   2   7
ATOM      7  N   UNL     1     -10.870   1.298 -17.141  0.00  0.00    -0.237 N 
ATOM      8  H   UNL     1     -10.699   1.491 -18.116  0.00  0.00    +0.159 HD
ATOM      9  C   UNL     1      -9.919   0.540 -16.516  0.00  0.00    +0.304 C 
ATOM     10  O   UNL     1      -9.777   0.349 -15.318  0.00  0.00    -0.253 OA
ATOM     11  N   UNL     1      -9.049  -0.020 -17.405  0.00  0.00    -0.313 N 
ATOM     12  H   UNL     1      -9.442  -0.396 -18.256  0.00  0.00    +0.146 HD
ATOM     13  H   UNL     1      -8.388  -0.641 -16.952  0.00  0.00    +0.146 HD
ENDBRANCH   2   7
BRANCH   5  14
ATOM     14  O   UNL     1     -14.880   4.321 -15.010  0.00  0.00    -0.457 OA
BRANCH  14  15
ATOM     15  C   UNL     1     -14.928   4.223 -13.586  0.00  0.00    +0.259 C 
BRANCH  15  16
ATOM     16  C   UNL     1     -16.336   3.872 -13.197  0.00  0.00    +0.006 C 
ATOM     17  C   UNL     1     -16.944   2.713 -13.484  0.00  0.00    +0.007 C 
ENDBRANCH  15  16
ENDBRANCH  14  15
ENDBRANCH   5  14
TORSDOF 4
ENDMDL
MODEL 4
REMARK VINA RESULT:      -5.0      3.379      6.014
REMARK  Name = min_compound97.pdb
REMARK  4 active torsions:
REMARK  status: ('A' for Active; 'I' for Inactive)
REMARK    1  A    between atoms: _5  and  _12
REMARK    2  A    between atoms: _5  and  _14
REMARK    3  A    between atoms: _9  and  _10
REMARK    4  A    between atoms: _14  and  _15
REMARK                            x       y       z     vdW  Elec       q    Type
REMARK                         _______ _______ _______ _____ _____    ______ ____
ROOT
ATOM      1  C   UNL     1     -16.466   0.161  -7.939  0.00  0.00    +0.074 C 
ATOM      2  C   UNL     1     -17.047   1.332  -7.646  0.00  0.00    +0.245 C 
ATOM      3  O   UNL     1     -16.494   2.156  -6.665  0.00  0.00    -0.269 OA
ATOM      4  O   UNL     1     -16.053   1.316  -5.523  0.00  0.00    -0.247 OA
ATOM      5  C   UNL     1     -15.124   0.379  -5.984  0.00  0.00    +0.332 C 
ATOM      6  C   UNL     1     -15.322  -0.231  -7.160  0.00  0.00    +0.096 C 
ENDROOT
BRANCH   2   7
ATOM      7  N   UNL     1     -18.124   1.793  -8.356  0.00  0.00    -0.237 N 
ATOM      8  H   UNL     1     -19.038   1.474  -8.075  0.00  0.00    +0.159 HD
ATOM      9  C   UNL     1     -18.111   2.795  -9.287  0.00  0.00    +0.304 C 
ATOM     10  O   UNL     1     -17.169   3.493  -9.628  0.00  0.00    -0.253 OA
ATOM     11  N   UNL     1     -19.343   2.991  -9.841  0.00  0.00    -0.313 N 
ATOM     12  H   UNL     1     -19.879   2.165 -10.069  0.00  0.00    +0.146 HD
ATOM     13  H   UNL     1     -19.321   3.681 -10.583  0.00  0.00    +0.146 HD
ENDBRANCH   2   7
BRANCH   5  14
ATOM     14  O   UNL     1     -14.118  -0.057  -5.148  0.00  0.00    -0.457 OA
BRANCH  14  15
ATOM     15  C   UNL     1     -14.394   0.219  -3.775  0.00  0.00    +0.259 C 
BRANCH  15  16
ATOM     16  C   UNL     1     -13.392   1.232  -3.299  0.00  0.00    +0.006 C 
ATOM     17  C   UNL     1     -13.430   2.540  -3.584  0.00  0.00    +0.007 C 
ENDBRANCH  15  16
ENDBRANCH  14  15
ENDBRANCH   5  14
TORSDOF 4
ENDMDL
MODEL 5
REMARK VINA RESULT:      -5.0      9.608     10.459
REMARK  Name = min_compound97.pdb
REMARK  4 active torsions:
REMARK  status: ('A' for Active; 'I' for Inactive)
REMARK    1  A    between atoms: _5  and  _12
REMARK    2  A    between atoms: _5  and  _14
REMARK    3  A    between atoms: _9  and  _10
REMARK    4  A    between atoms: _14  and  _15
REMARK                            x       y       z     vdW  Elec       q    Type
REMARK                         _______ _______ _______ _____ _____    ______ ____
ROOT
ATOM      1  C   UNL     1     -11.414   2.783 -15.535  0.00  0.00    +0.074 C 
ATOM      2  C   UNL     1     -11.210   1.764 -16.381  0.00  0.00    +0.245 C 
ATOM      3  O   UNL     1     -11.972   1.665 -17.545  0.00  0.00    -0.269 OA
ATOM      4  O   UNL     1     -13.381   2.010 -17.230  0.00  0.00    -0.247 OA
ATOM      5  C   UNL     1     -13.422   3.303 -16.704  0.00  0.00    +0.332 C 
ATOM      6  C   UNL     1     -12.481   3.700 -15.837  0.00  0.00    +0.096 C 
ENDROOT
BRANCH   2   7
ATOM      7  N   UNL     1     -10.199   0.862 -16.182  0.00  0.00    -0.237 N 
ATOM      8  H   UNL     1      -9.294   1.225 -15.926  0.00  0.00    +0.159 HD
ATOM      9  C   UNL     1     -10.331  -0.497 -16.102  0.00  0.00    +0.304 C 
ATOM     10  O   UNL     1     -11.358  -1.157 -16.144  0.00  0.00    -0.253 OA
ATOM     11  N   UNL     1      -9.127  -1.117 -15.934  0.00  0.00    -0.313 N 
ATOM     12  H   UNL     1      -8.352  -0.766 -16.480  0.00  0.00    +0.146 HD
ATOM     13  H   UNL     1      -9.213  -2.126 -15.948  0.00  0.00    +0.146 HD
ENDBRANCH   2   7
BRANCH   5  14
ATOM     14  O   UNL     1     -14.529   4.097 -16.920  0.00  0.00    -0.457 OA
BRANCH  14  15
ATOM     15  C   UNL     1     -15.294   4.298 -15.732  0.00  0.00    +0.259 C 
BRANCH  15  16
ATOM     16  C   UNL     1     -16.228   3.131 -15.581  0.00  0.00    +0.006 C 
ATOM     17  C   UNL     1     -16.330   2.369 -14.485  0.00  0.00    +0.007 C 
ENDBRANCH  15  16
ENDBRANCH  14  15
ENDBRANCH   5  14
TORSDOF 4
ENDMDL
MODEL 6
REMARK VINA RESULT:      -4.9     10.994     12.254
REMARK  Name = min_compound97.pdb
REMARK  4 active torsions:
REMARK  status: ('A' for Active; 'I' for Inactive)
REMARK    1  A    between atoms: _5  and  _12
REMARK    2  A    between atoms: _5  and  _14
REMARK    3  A    between atoms: _9  and  _10
REMARK    4  A    between atoms: _14  and  _15
REMARK                            x       y       z     vdW  Elec       q    Type
REMARK                         _______ _______ _______ _____ _____    ______ ____
ROOT
ATOM      1  C   UNL     1     -11.563   4.852 -16.771  0.00  0.00    +0.074 C 
ATOM      2  C   UNL     1     -12.761   4.397 -17.162  0.00  0.00    +0.245 C 
ATOM      3  O   UNL     1     -13.030   3.028 -17.129  0.00  0.00    -0.269 OA
ATOM      4  O   UNL     1     -11.835   2.291 -17.613  0.00  0.00    -0.247 OA
ATOM      5  C   UNL     1     -10.745   2.616 -16.802  0.00  0.00    +0.332 C 
ATOM      6  C   UNL     1     -10.568   3.882 -16.400  0.00  0.00    +0.096 C 
ENDROOT
BRANCH   2   7
ATOM      7  N   UNL     1     -13.773   5.254 -17.506  0.00  0.00    -0.237 N 
ATOM      8  H   UNL     1     -13.896   5.460 -18.486  0.00  0.00    +0.159 HD
ATOM      9  C   UNL     1     -14.764   5.710 -16.680  0.00  0.00    +0.304 C 
ATOM     10  O   UNL     1     -14.965   5.415 -15.513  0.00  0.00    -0.253 OA
ATOM     11  N   UNL     1     -15.598   6.580 -17.319  0.00  0.00    -0.313 N 
ATOM     12  H   UNL     1     -15.170   7.258 -17.934  0.00  0.00    +0.146 HD
ATOM     13  H   UNL     1     -16.288   6.976 -16.692  0.00  0.00    +0.146 HD
ENDBRANCH   2   7
BRANCH   5  14
ATOM     14  O   UNL     1      -9.752   1.685 -16.582  0.00  0.00    -0.457 OA
BRANCH  14  15
ATOM     15  C   UNL     1     -10.135   0.700 -15.622  0.00  0.00    +0.259 C 
BRANCH  15  16
ATOM     16  C   UNL     1      -9.718  -0.644 -16.149  0.00  0.00    +0.006 C 
ATOM     17  C   UNL     1      -9.842  -1.038 -17.424  0.00  0.00    +0.007 C 
ENDBRANCH  15  16
ENDBRANCH  14  15
ENDBRANCH   5  14
TORSDOF 4
ENDMDL
MODEL 7
REMARK VINA RESULT:      -4.9      2.276      2.992
REMARK  Name = min_compound97.pdb
REMARK  4 active torsions:
REMARK  status: ('A' for Active; 'I' for Inactive)
REMARK    1  A    between atoms: _5  and  _12
REMARK    2  A    between atoms: _5  and  _14
REMARK    3  A    between atoms: _9  and  _10
REMARK    4  A    between atoms: _14  and  _15
REMARK                            x       y       z     vdW  Elec       q    Type
REMARK                         _______ _______ _______ _____ _____    ______ ____
ROOT
ATOM      1  C   UNL     1     -14.001   0.380  -3.198  0.00  0.00    +0.074 C 
ATOM      2  C   UNL     1     -14.578  -0.828  -3.133  0.00  0.00    +0.245 C 
ATOM      3  O   UNL     1     -15.384  -1.271  -4.183  0.00  0.00    -0.269 OA
ATOM      4  O   UNL     1     -16.226  -0.143  -4.654  0.00  0.00    -0.247 OA
ATOM      5  C   UNL     1     -15.395   0.904  -5.057  0.00  0.00    +0.332 C 
ATOM      6  C   UNL     1     -14.306   1.206  -4.336  0.00  0.00    +0.096 C 
ENDROOT
BRANCH   2   7
ATOM      7  N   UNL     1     -14.321  -1.687  -2.098  0.00  0.00    -0.237 N 
ATOM      8  H   UNL     1     -13.359  -1.939  -1.929  0.00  0.00    +0.159 HD
ATOM      9  C   UNL     1     -15.211  -2.092  -1.141  0.00  0.00    +0.304 C 
ATOM     10  O   UNL     1     -16.371  -1.739  -0.996  0.00  0.00    -0.253 OA
ATOM     11  N   UNL     1     -14.653  -2.981  -0.270  0.00  0.00    -0.313 N 
ATOM     12  H   UNL     1     -14.053  -3.692  -0.663  0.00  0.00    +0.146 HD
ATOM     13  H   UNL     1     -15.329  -3.338   0.395  0.00  0.00    +0.146 HD
ENDBRANCH   2   7
BRANCH   5  14
ATOM     14  O   UNL     1     -15.796   1.746  -6.073  0.00  0.00    -0.457 OA
BRANCH  14  15
ATOM     15  C   UNL     1     -15.340   1.308  -7.353  0.00  0.00    +0.259 C 
BRANCH  15  16
ATOM     16  C   UNL     1     -16.489   0.629  -8.043  0.00  0.00    +0.006 C 
ATOM     17  C   UNL     1     -16.648  -0.698  -8.141  0.00  0.00    +0.007 C 
ENDBRANCH  15  16
ENDBRANCH  14  15
ENDBRANCH   5  14
TORSDOF 4
ENDMDL
MODEL 8
REMARK VINA RESULT:      -4.8     11.024     12.546
REMARK  Name = min_compound97.pdb
REMARK  4 active torsions:
REMARK  status: ('A' for Active; 'I' for Inactive)
REMARK    1  A    between atoms: _5  and  _12
REMARK    2  A    between atoms: _5  and  _14
REMARK    3  A    between atoms: _9  and  _10
REMARK    4  A    between atoms: _14  and  _15
REMARK                            x       y       z     vdW  Elec       q    Type
REMARK                         _______ _______ _______ _____ _____    ______ ____
ROOT
ATOM      1  C   UNL     1     -13.622   3.367 -17.213  0.00  0.00    +0.074 C 
ATOM      2  C   UNL     1     -13.023   4.494 -16.804  0.00  0.00    +0.245 C 
ATOM      3  O   UNL     1     -11.715   4.450 -16.322  0.00  0.00    -0.269 OA
ATOM      4  O   UNL     1     -11.558   3.251 -15.462  0.00  0.00    -0.247 OA
ATOM      5  C   UNL     1     -11.861   2.113 -16.213  0.00  0.00    +0.332 C 
ATOM      6  C   UNL     1     -12.898   2.133 -17.062  0.00  0.00    +0.096 C 
ENDROOT
BRANCH   2   7
ATOM      7  N   UNL     1     -13.631   5.714 -16.937  0.00  0.00    -0.237 N 
ATOM      8  H   UNL     1     -14.432   5.901 -16.352  0.00  0.00    +0.159 HD
ATOM      9  C   UNL     1     -13.153   6.785 -17.640  0.00  0.00    +0.304 C 
ATOM     10  O   UNL     1     -12.091   6.880 -18.236  0.00  0.00    -0.253 OA
ATOM     11  N   UNL     1     -14.014   7.843 -17.606  0.00  0.00    -0.313 N 
ATOM     12  H   UNL     1     -14.998   7.635 -17.706  0.00  0.00    +0.146 HD
ATOM     13  H   UNL     1     -13.697   8.610 -18.185  0.00  0.00    +0.146 HD
ENDBRANCH   2   7
BRANCH   5  14
ATOM     14  O   UNL     1     -11.225   0.921 -15.939  0.00  0.00    -0.457 OA
BRANCH  14  15
ATOM     15  C   UNL     1     -11.603  -0.117 -16.844  0.00  0.00    +0.259 C 
BRANCH  15  16
ATOM     16  C   UNL     1     -10.362  -0.595 -17.541  0.00  0.00    +0.006 C 
ATOM     17  C   UNL     1      -9.128  -0.120 -17.322  0.00  0.00    +0.007 C 
ENDBRANCH  15  16
ENDBRANCH  14  15
ENDBRANCH   5  14
TORSDOF 4
ENDMDL
MODEL 9
REMARK VINA RESULT:      -4.7      2.794      6.253
REMARK  Name = min_compound97.pdb
REMARK  4 active torsions:
REMARK  status: ('A' for Active; 'I' for Inactive)
REMARK    1  A    between atoms: _5  and  _12
REMARK    2  A    between atoms: _5  and  _14
REMARK    3  A    between atoms: _9  and  _10
REMARK    4  A    between atoms: _14  and  _15
REMARK                            x       y       z     vdW  Elec       q    Type
REMARK                         _______ _______ _______ _____ _____    ______ ____
ROOT
ATOM      1  C   UNL     1     -14.137   0.520  -6.876  0.00  0.00    +0.074 C 
ATOM      2  C   UNL     1     -15.237   1.286  -6.883  0.00  0.00    +0.245 C 
ATOM      3  O   UNL     1     -15.908   1.550  -5.688  0.00  0.00    -0.269 OA
ATOM      4  O   UNL     1     -15.954   0.308  -4.877  0.00  0.00    -0.247 OA
ATOM      5  C   UNL     1     -14.647  -0.127  -4.641  0.00  0.00    +0.332 C 
ATOM      6  C   UNL     1     -13.738  -0.065  -5.624  0.00  0.00    +0.096 C 
ENDROOT
BRANCH   2   7
ATOM      7  N   UNL     1     -15.671   1.902  -8.027  0.00  0.00    -0.237 N 
ATOM      8  H   UNL     1     -14.985   2.391  -8.581  0.00  0.00    +0.159 HD
ATOM      9  C   UNL     1     -16.903   1.762  -8.603  0.00  0.00    +0.304 C 
ATOM     10  O   UNL     1     -17.823   1.042  -8.248  0.00  0.00    -0.253 OA
ATOM     11  N   UNL     1     -17.035   2.539  -9.718  0.00  0.00    -0.313 N 
ATOM     12  H   UNL     1     -16.658   3.475  -9.669  0.00  0.00    +0.146 HD
ATOM     13  H   UNL     1     -17.970   2.494 -10.104  0.00  0.00    +0.146 HD
ENDBRANCH   2   7
BRANCH   5  14
ATOM     14  O   UNL     1     -14.347  -0.797  -3.474  0.00  0.00    -0.457 OA
BRANCH  14  15
ATOM     15  C   UNL     1     -15.492  -0.975  -2.640  0.00  0.00    +0.259 C 
BRANCH  15  16
ATOM     16  C   UNL     1     -15.114  -1.919  -1.535  0.00  0.00    +0.006 C 
ATOM     17  C   UNL     1     -14.022  -2.694  -1.530  0.00  0.00    +0.007 C 
ENDBRANCH  15  16
ENDBRANCH  14  15
ENDBRANCH   5  14
TORSDOF 4
ENDMDL
