MODEL 1
REMARK VINA RESULT:      -8.1      0.000      0.000
REMARK  Name = min_compound979.pdb
REMARK  3 active torsions:
REMARK  status: ('A' for Active; 'I' for Inactive)
REMARK    1  A    between atoms: _12  and  _19
REMARK    2  A    between atoms: _14  and  _18
REMARK    3  A    between atoms: _19  and  _20
REMARK                            x       y       z     vdW  Elec       q    Type
REMARK                         _______ _______ _______ _____ _____    ______ ____
ROOT
ATOM      1  C   UNL     1     -12.403   2.100 -17.992  0.00  0.00    +0.189 C 
ATOM      2  O   UNL     1     -12.941   1.891 -19.113  0.00  0.00    -0.287 OA
ATOM      3  C   UNL     1     -11.464   1.183 -17.297  0.00  0.00    +0.025 A 
ATOM      4  C   UNL     1     -11.035  -0.034 -17.841  0.00  0.00    +0.012 A 
ATOM      5  C   UNL     1     -10.155  -0.856 -17.136  0.00  0.00    +0.001 A 
ATOM      6  C   UNL     1      -9.701  -0.469 -15.875  0.00  0.00    +0.000 A 
ATOM      7  C   UNL     1     -10.127   0.740 -15.320  0.00  0.00    +0.004 A 
ATOM      8  C   UNL     1     -10.998   1.573 -16.035  0.00  0.00    -0.036 A 
ATOM      9  C   UNL     1     -11.503   2.882 -15.473  0.00  0.00    +0.040 C 
ATOM     10  C   UNL     1     -11.607   4.074 -16.572  0.00  0.00    +0.043 C 
ATOM     11  C   UNL     1     -12.684   3.436 -17.399  0.00  0.00    +0.001 C 
ATOM     12  C   UNL     1     -13.836   4.114 -17.633  0.00  0.00    +0.015 C 
ENDROOT
BRANCH  12  13
ATOM     13  C   UNL     1     -14.198   5.484 -17.227  0.00  0.00    -0.021 A 
ATOM     14  C   UNL     1     -13.788   6.630 -17.915  0.00  0.00    +0.008 A 
ATOM     15  C   UNL     1     -14.182   7.897 -17.479  0.00  0.00    +0.004 A 
ATOM     16  C   UNL     1     -14.960   8.038 -16.328  0.00  0.00    +0.045 A 
ATOM     17  C   UNL     1     -15.340   6.910 -15.602  0.00  0.00    +0.121 A 
ATOM     18  C   UNL     1     -14.961   5.644 -16.061  0.00  0.00    +0.053 A 
BRANCH  17  19
ATOM     19  O   UNL     1     -16.075   6.909 -14.448  0.00  0.00    -0.495 OA
ATOM     20  C   UNL     1     -15.751   5.921 -13.480  0.00  0.00    +0.277 C 
ENDBRANCH  17  19
ENDBRANCH  12  13
TORSDOF 2
ENDMDL
MODEL 2
REMARK VINA RESULT:      -7.9      1.746      2.394
REMARK  Name = min_compound979.pdb
REMARK  3 active torsions:
REMARK  status: ('A' for Active; 'I' for Inactive)
REMARK    1  A    between atoms: _12  and  _19
REMARK    2  A    between atoms: _14  and  _18
REMARK    3  A    between atoms: _19  and  _20
REMARK                            x       y       z     vdW  Elec       q    Type
REMARK                         _______ _______ _______ _____ _____    ______ ____
ROOT
ATOM      1  C   UNL     1     -11.122   3.471 -16.189  0.00  0.00    +0.189 C 
ATOM      2  O   UNL     1     -10.309   4.236 -15.601  0.00  0.00    -0.287 OA
ATOM      3  C   UNL     1     -11.063   1.988 -16.200  0.00  0.00    +0.025 A 
ATOM      4  C   UNL     1     -10.090   1.253 -15.511  0.00  0.00    +0.012 A 
ATOM      5  C   UNL     1     -10.084  -0.141 -15.564  0.00  0.00    +0.001 A 
ATOM      6  C   UNL     1     -11.048  -0.813 -16.315  0.00  0.00    +0.000 A 
ATOM      7  C   UNL     1     -12.020  -0.090 -17.011  0.00  0.00    +0.004 A 
ATOM      8  C   UNL     1     -12.036   1.309 -16.945  0.00  0.00    -0.036 A 
ATOM      9  C   UNL     1     -13.053   2.140 -17.693  0.00  0.00    +0.040 C 
ATOM     10  C   UNL     1     -13.590   3.430 -16.863  0.00  0.00    +0.043 C 
ATOM     11  C   UNL     1     -12.278   4.156 -16.831  0.00  0.00    +0.001 C 
ATOM     12  C   UNL     1     -12.202   5.420 -17.318  0.00  0.00    +0.015 C 
ENDROOT
BRANCH  12  13
ATOM     13  C   UNL     1     -13.282   6.266 -17.856  0.00  0.00    -0.021 A 
ATOM     14  C   UNL     1     -13.690   6.247 -19.193  0.00  0.00    +0.008 A 
ATOM     15  C   UNL     1     -14.733   7.068 -19.628  0.00  0.00    +0.004 A 
ATOM     16  C   UNL     1     -15.358   7.946 -18.741  0.00  0.00    +0.045 A 
ATOM     17  C   UNL     1     -14.935   8.014 -17.414  0.00  0.00    +0.121 A 
ATOM     18  C   UNL     1     -13.906   7.170 -16.982  0.00  0.00    +0.053 A 
BRANCH  17  19
ATOM     19  O   UNL     1     -15.441   8.845 -16.452  0.00  0.00    -0.495 OA
ATOM     20  C   UNL     1     -15.431   8.363 -15.116  0.00  0.00    +0.277 C 
ENDBRANCH  17  19
ENDBRANCH  12  13
TORSDOF 2
ENDMDL
MODEL 3
REMARK VINA RESULT:      -7.7      1.113      1.941
REMARK  Name = min_compound979.pdb
REMARK  3 active torsions:
REMARK  status: ('A' for Active; 'I' for Inactive)
REMARK    1  A    between atoms: _12  and  _19
REMARK    2  A    between atoms: _14  and  _18
REMARK    3  A    between atoms: _19  and  _20
REMARK                            x       y       z     vdW  Elec       q    Type
REMARK                         _______ _______ _______ _____ _____    ______ ____
ROOT
ATOM      1  C   UNL     1     -12.496   2.017 -17.819  0.00  0.00    +0.189 C 
ATOM      2  O   UNL     1     -13.058   1.936 -18.946  0.00  0.00    -0.287 OA
ATOM      3  C   UNL     1     -11.446   1.101 -17.308  0.00  0.00    +0.025 A 
ATOM      4  C   UNL     1     -10.925   0.036 -18.055  0.00  0.00    +0.012 A 
ATOM      5  C   UNL     1      -9.942  -0.795 -17.516  0.00  0.00    +0.001 A 
ATOM      6  C   UNL     1      -9.476  -0.571 -16.221  0.00  0.00    +0.000 A 
ATOM      7  C   UNL     1      -9.992   0.484 -15.465  0.00  0.00    +0.004 A 
ATOM      8  C   UNL     1     -10.968   1.328 -16.011  0.00  0.00    -0.036 A 
ATOM      9  C   UNL     1     -11.573   2.471 -15.231  0.00  0.00    +0.040 C 
ATOM     10  C   UNL     1     -11.836   3.808 -16.116  0.00  0.00    +0.043 C 
ATOM     11  C   UNL     1     -12.880   3.205 -17.009  0.00  0.00    +0.001 C 
ATOM     12  C   UNL     1     -14.100   3.791 -17.100  0.00  0.00    +0.015 C 
ENDROOT
BRANCH  12  13
ATOM     13  C   UNL     1     -14.574   5.034 -16.467  0.00  0.00    -0.021 A 
ATOM     14  C   UNL     1     -15.155   5.084 -15.196  0.00  0.00    +0.008 A 
ATOM     15  C   UNL     1     -15.568   6.303 -14.653  0.00  0.00    +0.004 A 
ATOM     16  C   UNL     1     -15.441   7.484 -15.387  0.00  0.00    +0.045 A 
ATOM     17  C   UNL     1     -14.907   7.448 -16.675  0.00  0.00    +0.121 A 
ATOM     18  C   UNL     1     -14.473   6.226 -17.200  0.00  0.00    +0.053 A 
BRANCH  17  19
ATOM     19  O   UNL     1     -14.752   8.522 -17.509  0.00  0.00    -0.495 OA
ATOM     20  C   UNL     1     -15.893   9.341 -17.721  0.00  0.00    +0.277 C 
ENDBRANCH  17  19
ENDBRANCH  12  13
TORSDOF 2
ENDMDL
MODEL 4
REMARK VINA RESULT:      -7.6      2.309      3.337
REMARK  Name = min_compound979.pdb
REMARK  3 active torsions:
REMARK  status: ('A' for Active; 'I' for Inactive)
REMARK    1  A    between atoms: _12  and  _19
REMARK    2  A    between atoms: _14  and  _18
REMARK    3  A    between atoms: _19  and  _20
REMARK                            x       y       z     vdW  Elec       q    Type
REMARK                         _______ _______ _______ _____ _____    ______ ____
ROOT
ATOM      1  C   UNL     1     -11.075   3.498 -16.240  0.00  0.00    +0.189 C 
ATOM      2  O   UNL     1     -10.207   4.249 -15.716  0.00  0.00    -0.287 OA
ATOM      3  C   UNL     1     -11.051   2.013 -16.235  0.00  0.00    +0.025 A 
ATOM      4  C   UNL     1     -10.053   1.263 -15.601  0.00  0.00    +0.012 A 
ATOM      5  C   UNL     1     -10.083  -0.132 -15.637  0.00  0.00    +0.001 A 
ATOM      6  C   UNL     1     -11.110  -0.788 -16.314  0.00  0.00    +0.000 A 
ATOM      7  C   UNL     1     -12.108  -0.050 -16.955  0.00  0.00    +0.004 A 
ATOM      8  C   UNL     1     -12.087   1.350 -16.907  0.00  0.00    -0.036 A 
ATOM      9  C   UNL     1     -13.130   2.196 -17.598  0.00  0.00    +0.040 C 
ATOM     10  C   UNL     1     -13.581   3.508 -16.752  0.00  0.00    +0.043 C 
ATOM     11  C   UNL     1     -12.253   4.203 -16.815  0.00  0.00    +0.001 C 
ATOM     12  C   UNL     1     -12.180   5.459 -17.323  0.00  0.00    +0.015 C 
ENDROOT
BRANCH  12  13
ATOM     13  C   UNL     1     -13.273   6.324 -17.800  0.00  0.00    -0.021 A 
ATOM     14  C   UNL     1     -13.986   7.199 -16.975  0.00  0.00    +0.008 A 
ATOM     15  C   UNL     1     -15.002   8.001 -17.501  0.00  0.00    +0.004 A 
ATOM     16  C   UNL     1     -15.343   7.913 -18.852  0.00  0.00    +0.045 A 
ATOM     17  C   UNL     1     -14.675   7.013 -19.682  0.00  0.00    +0.121 A 
ATOM     18  C   UNL     1     -13.643   6.232 -19.150  0.00  0.00    +0.053 A 
BRANCH  17  19
ATOM     19  O   UNL     1     -14.927   6.809 -21.011  0.00  0.00    -0.495 OA
ATOM     20  C   UNL     1     -14.628   5.521 -21.531  0.00  0.00    +0.277 C 
ENDBRANCH  17  19
ENDBRANCH  12  13
TORSDOF 2
ENDMDL
MODEL 5
REMARK VINA RESULT:      -7.1      1.716      2.223
REMARK  Name = min_compound979.pdb
REMARK  3 active torsions:
REMARK  status: ('A' for Active; 'I' for Inactive)
REMARK    1  A    between atoms: _12  and  _19
REMARK    2  A    between atoms: _14  and  _18
REMARK    3  A    between atoms: _19  and  _20
REMARK                            x       y       z     vdW  Elec       q    Type
REMARK                         _______ _______ _______ _____ _____    ______ ____
ROOT
ATOM      1  C   UNL     1     -11.457   3.510 -17.153  0.00  0.00    +0.189 C 
ATOM      2  O   UNL     1     -10.617   4.388 -17.492  0.00  0.00    -0.287 OA
ATOM      3  C   UNL     1     -11.179   2.060 -16.999  0.00  0.00    +0.025 A 
ATOM      4  C   UNL     1      -9.911   1.497 -17.186  0.00  0.00    +0.012 A 
ATOM      5  C   UNL     1      -9.714   0.124 -17.032  0.00  0.00    +0.001 A 
ATOM      6  C   UNL     1     -10.788  -0.699 -16.696  0.00  0.00    +0.000 A 
ATOM      7  C   UNL     1     -12.059  -0.149 -16.512  0.00  0.00    +0.004 A 
ATOM      8  C   UNL     1     -12.254   1.231 -16.651  0.00  0.00    -0.036 A 
ATOM      9  C   UNL     1     -13.610   1.874 -16.482  0.00  0.00    +0.040 C 
ATOM     10  C   UNL     1     -13.569   3.310 -15.723  0.00  0.00    +0.043 C 
ATOM     11  C   UNL     1     -12.803   4.034 -16.790  0.00  0.00    +0.001 C 
ATOM     12  C   UNL     1     -13.321   5.162 -17.336  0.00  0.00    +0.015 C 
ENDROOT
BRANCH  12  13
ATOM     13  C   UNL     1     -14.568   5.866 -16.986  0.00  0.00    -0.021 A 
ATOM     14  C   UNL     1     -15.841   5.312 -17.142  0.00  0.00    +0.008 A 
ATOM     15  C   UNL     1     -16.979   6.033 -16.774  0.00  0.00    +0.004 A 
ATOM     16  C   UNL     1     -16.862   7.334 -16.279  0.00  0.00    +0.045 A 
ATOM     17  C   UNL     1     -15.603   7.922 -16.160  0.00  0.00    +0.121 A 
ATOM     18  C   UNL     1     -14.468   7.182 -16.508  0.00  0.00    +0.053 A 
BRANCH  17  19
ATOM     19  O   UNL     1     -15.350   9.192 -15.717  0.00  0.00    -0.495 OA
ATOM     20  C   UNL     1     -16.286   9.754 -14.807  0.00  0.00    +0.277 C 
ENDBRANCH  17  19
ENDBRANCH  12  13
TORSDOF 2
ENDMDL
MODEL 6
REMARK VINA RESULT:      -7.1      1.524      1.817
REMARK  Name = min_compound979.pdb
REMARK  3 active torsions:
REMARK  status: ('A' for Active; 'I' for Inactive)
REMARK    1  A    between atoms: _12  and  _19
REMARK    2  A    between atoms: _14  and  _18
REMARK    3  A    between atoms: _19  and  _20
REMARK                            x       y       z     vdW  Elec       q    Type
REMARK                         _______ _______ _______ _____ _____    ______ ____
ROOT
ATOM      1  C   UNL     1     -13.678   2.263 -16.294  0.00  0.00    +0.189 C 
ATOM      2  O   UNL     1     -14.759   1.663 -16.043  0.00  0.00    -0.287 OA
ATOM      3  C   UNL     1     -12.385   1.614 -16.630  0.00  0.00    +0.025 A 
ATOM      4  C   UNL     1     -12.228   0.227 -16.741  0.00  0.00    +0.012 A 
ATOM      5  C   UNL     1     -10.984  -0.323 -17.054  0.00  0.00    +0.001 A 
ATOM      6  C   UNL     1      -9.885   0.511 -17.252  0.00  0.00    +0.000 A 
ATOM      7  C   UNL     1     -10.029   1.896 -17.138  0.00  0.00    +0.004 A 
ATOM      8  C   UNL     1     -11.280   2.450 -16.839  0.00  0.00    -0.036 A 
ATOM      9  C   UNL     1     -11.487   3.938 -16.686  0.00  0.00    +0.040 C 
ATOM     10  C   UNL     1     -12.890   4.477 -17.305  0.00  0.00    +0.043 C 
ATOM     11  C   UNL     1     -13.780   3.747 -16.343  0.00  0.00    +0.001 C 
ATOM     12  C   UNL     1     -14.681   4.445 -15.607  0.00  0.00    +0.015 C 
ENDROOT
BRANCH  12  13
ATOM     13  C   UNL     1     -14.984   5.886 -15.646  0.00  0.00    -0.021 A 
ATOM     14  C   UNL     1     -14.535   6.746 -16.653  0.00  0.00    +0.008 A 
ATOM     15  C   UNL     1     -14.874   8.101 -16.633  0.00  0.00    +0.004 A 
ATOM     16  C   UNL     1     -15.636   8.623 -15.586  0.00  0.00    +0.045 A 
ATOM     17  C   UNL     1     -16.055   7.791 -14.548  0.00  0.00    +0.121 A 
ATOM     18  C   UNL     1     -15.731   6.431 -14.590  0.00  0.00    +0.053 A 
BRANCH  17  19
ATOM     19  O   UNL     1     -16.780   8.177 -13.454  0.00  0.00    -0.495 OA
ATOM     20  C   UNL     1     -17.568   7.179 -12.820  0.00  0.00    +0.277 C 
ENDBRANCH  17  19
ENDBRANCH  12  13
TORSDOF 2
ENDMDL
MODEL 7
REMARK VINA RESULT:      -6.9      2.334      7.169
REMARK  Name = min_compound979.pdb
REMARK  3 active torsions:
REMARK  status: ('A' for Active; 'I' for Inactive)
REMARK    1  A    between atoms: _12  and  _19
REMARK    2  A    between atoms: _14  and  _18
REMARK    3  A    between atoms: _19  and  _20
REMARK                            x       y       z     vdW  Elec       q    Type
REMARK                         _______ _______ _______ _____ _____    ______ ____
ROOT
ATOM      1  C   UNL     1     -15.553   5.044 -14.936  0.00  0.00    +0.189 C 
ATOM      2  O   UNL     1     -15.088   6.158 -15.306  0.00  0.00    -0.287 OA
ATOM      3  C   UNL     1     -16.749   4.847 -14.080  0.00  0.00    +0.025 A 
ATOM      4  C   UNL     1     -17.535   5.904 -13.603  0.00  0.00    +0.012 A 
ATOM      5  C   UNL     1     -18.646   5.654 -12.796  0.00  0.00    +0.001 A 
ATOM      6  C   UNL     1     -18.976   4.343 -12.453  0.00  0.00    +0.000 A 
ATOM      7  C   UNL     1     -18.196   3.282 -12.918  0.00  0.00    +0.004 A 
ATOM      8  C   UNL     1     -17.089   3.531 -13.741  0.00  0.00    -0.036 A 
ATOM      9  C   UNL     1     -16.202   2.422 -14.256  0.00  0.00    +0.040 C 
ATOM     10  C   UNL     1     -15.699   2.636 -15.786  0.00  0.00    +0.043 C 
ATOM     11  C   UNL     1     -14.869   3.855 -15.513  0.00  0.00    +0.001 C 
ATOM     12  C   UNL     1     -13.556   3.859 -15.855  0.00  0.00    +0.015 C 
ENDROOT
BRANCH  12  13
ATOM     13  C   UNL     1     -12.782   2.813 -16.548  0.00  0.00    -0.021 A 
ATOM     14  C   UNL     1     -13.006   2.433 -17.874  0.00  0.00    +0.008 A 
ATOM     15  C   UNL     1     -12.222   1.442 -18.471  0.00  0.00    +0.004 A 
ATOM     16  C   UNL     1     -11.227   0.792 -17.737  0.00  0.00    +0.045 A 
ATOM     17  C   UNL     1     -11.019   1.124 -16.399  0.00  0.00    +0.121 A 
ATOM     18  C   UNL     1     -11.793   2.135 -15.819  0.00  0.00    +0.053 A 
BRANCH  17  19
ATOM     19  O   UNL     1     -10.100   0.550 -15.564  0.00  0.00    -0.495 OA
ATOM     20  C   UNL     1      -9.692  -0.776 -15.871  0.00  0.00    +0.277 C 
ENDBRANCH  17  19
ENDBRANCH  12  13
TORSDOF 2
ENDMDL
MODEL 8
REMARK VINA RESULT:      -6.9      7.353     10.153
REMARK  Name = min_compound979.pdb
REMARK  3 active torsions:
REMARK  status: ('A' for Active; 'I' for Inactive)
REMARK    1  A    between atoms: _12  and  _19
REMARK    2  A    between atoms: _14  and  _18
REMARK    3  A    between atoms: _19  and  _20
REMARK                            x       y       z     vdW  Elec       q    Type
REMARK                         _______ _______ _______ _____ _____    ______ ____
ROOT
ATOM      1  C   UNL     1     -16.682   2.572  -6.105  0.00  0.00    +0.189 C 
ATOM      2  O   UNL     1     -17.598   3.290  -5.618  0.00  0.00    -0.287 OA
ATOM      3  C   UNL     1     -15.754   1.709  -5.332  0.00  0.00    +0.025 A 
ATOM      4  C   UNL     1     -15.817   1.567  -3.941  0.00  0.00    +0.012 A 
ATOM      5  C   UNL     1     -14.911   0.744  -3.270  0.00  0.00    +0.001 A 
ATOM      6  C   UNL     1     -13.929   0.061  -3.986  0.00  0.00    +0.000 A 
ATOM      7  C   UNL     1     -13.854   0.200  -5.374  0.00  0.00    +0.004 A 
ATOM      8  C   UNL     1     -14.772   1.014  -6.050  0.00  0.00    -0.036 A 
ATOM      9  C   UNL     1     -14.723   1.213  -7.547  0.00  0.00    +0.040 C 
ATOM     10  C   UNL     1     -16.186   1.273  -8.253  0.00  0.00    +0.043 C 
ATOM     11  C   UNL     1     -16.630   2.545  -7.593  0.00  0.00    +0.001 C 
ATOM     12  C   UNL     1     -17.028   3.591  -8.360  0.00  0.00    +0.015 C 
ENDROOT
BRANCH  12  13
ATOM     13  C   UNL     1     -17.155   3.662  -9.826  0.00  0.00    -0.021 A 
ATOM     14  C   UNL     1     -18.324   3.333 -10.520  0.00  0.00    +0.008 A 
ATOM     15  C   UNL     1     -18.376   3.439 -11.912  0.00  0.00    +0.004 A 
ATOM     16  C   UNL     1     -17.248   3.838 -12.633  0.00  0.00    +0.045 A 
ATOM     17  C   UNL     1     -16.060   4.124 -11.963  0.00  0.00    +0.121 A 
ATOM     18  C   UNL     1     -16.025   4.040 -10.567  0.00  0.00    +0.053 A 
BRANCH  17  19
ATOM     19  O   UNL     1     -14.880   4.499 -12.547  0.00  0.00    -0.495 OA
ATOM     20  C   UNL     1     -14.738   4.233 -13.936  0.00  0.00    +0.277 C 
ENDBRANCH  17  19
ENDBRANCH  12  13
TORSDOF 2
ENDMDL
MODEL 9
REMARK VINA RESULT:      -6.6      2.186      2.656
REMARK  Name = min_compound979.pdb
REMARK  3 active torsions:
REMARK  status: ('A' for Active; 'I' for Inactive)
REMARK    1  A    between atoms: _12  and  _19
REMARK    2  A    between atoms: _14  and  _18
REMARK    3  A    between atoms: _19  and  _20
REMARK                            x       y       z     vdW  Elec       q    Type
REMARK                         _______ _______ _______ _____ _____    ______ ____
ROOT
ATOM      1  C   UNL     1     -11.734   3.442 -17.104  0.00  0.00    +0.189 C 
ATOM      2  O   UNL     1     -11.026   4.429 -17.447  0.00  0.00    -0.287 OA
ATOM      3  C   UNL     1     -11.273   2.033 -17.022  0.00  0.00    +0.025 A 
ATOM      4  C   UNL     1      -9.957   1.638 -17.293  0.00  0.00    +0.012 A 
ATOM      5  C   UNL     1      -9.587   0.296 -17.205  0.00  0.00    +0.001 A 
ATOM      6  C   UNL     1     -10.534  -0.665 -16.852  0.00  0.00    +0.000 A 
ATOM      7  C   UNL     1     -11.851  -0.283 -16.585  0.00  0.00    +0.004 A 
ATOM      8  C   UNL     1     -12.220   1.066 -16.658  0.00  0.00    -0.036 A 
ATOM      9  C   UNL     1     -13.633   1.531 -16.398  0.00  0.00    +0.040 C 
ATOM     10  C   UNL     1     -13.728   2.934 -15.583  0.00  0.00    +0.043 C 
ATOM     11  C   UNL     1     -13.112   3.783 -16.656  0.00  0.00    +0.001 C 
ATOM     12  C   UNL     1     -13.792   4.857 -17.130  0.00  0.00    +0.015 C 
ENDROOT
BRANCH  12  13
ATOM     13  C   UNL     1     -15.095   5.388 -16.692  0.00  0.00    -0.021 A 
ATOM     14  C   UNL     1     -15.243   6.335 -15.674  0.00  0.00    +0.008 A 
ATOM     15  C   UNL     1     -16.511   6.805 -15.321  0.00  0.00    +0.004 A 
ATOM     16  C   UNL     1     -17.651   6.306 -15.956  0.00  0.00    +0.045 A 
ATOM     17  C   UNL     1     -17.527   5.328 -16.941  0.00  0.00    +0.121 A 
ATOM     18  C   UNL     1     -16.251   4.882 -17.304  0.00  0.00    +0.053 A 
BRANCH  17  19
ATOM     19  O   UNL     1     -18.559   4.738 -17.620  0.00  0.00    -0.495 OA
ATOM     20  C   UNL     1     -19.151   3.594 -17.021  0.00  0.00    +0.277 C 
ENDBRANCH  17  19
ENDBRANCH  12  13
TORSDOF 2
ENDMDL
