MODEL 1
REMARK VINA RESULT:      -6.8      0.000      0.000
REMARK  Name = min_compound919.pdb
REMARK  3 active torsions:
REMARK  status: ('A' for Active; 'I' for Inactive)
REMARK    1  A    between atoms: _1  and  _15
REMARK    2  A    between atoms: _2  and  _16
REMARK    3  A    between atoms: _6  and  _19
REMARK                            x       y       z     vdW  Elec       q    Type
REMARK                         _______ _______ _______ _____ _____    ______ ____
ROOT
ATOM      1  C   UNL     1     -14.993   7.719 -16.549  0.00  0.00    +0.027 A 
ATOM      2  C   UNL     1     -15.590   9.096 -16.564  0.00  0.00    +0.051 C 
ATOM      3  C   UNL     1     -15.234   6.667 -15.641  0.00  0.00    +0.278 A 
ATOM      4  C   UNL     1     -14.626   5.332 -15.752  0.00  0.00    +0.107 A 
ATOM      5  C   UNL     1     -13.732   4.969 -16.784  0.00  0.00    +0.041 A 
ATOM      6  C   UNL     1     -13.481   6.007 -17.687  0.00  0.00    +0.024 A 
ATOM      7  C   UNL     1     -14.087   7.318 -17.573  0.00  0.00    +0.012 A 
ENDROOT
BRANCH   5   8
ATOM      8  N   UNL     1     -13.149   3.612 -16.846  0.00  0.00    -0.269 N 
ATOM      9  H   UNL     1     -13.765   2.857 -16.587  0.00  0.00    +0.156 HD
ATOM     10  C   UNL     1     -11.843   3.255 -17.231  0.00  0.00    +0.306 C 
ATOM     11  N   UNL     1     -11.450   1.858 -17.170  0.00  0.00    -0.285 N 
ATOM     12  C   UNL     1     -12.277   0.731 -16.601  0.00  0.00    +0.109 C 
ATOM     13  C   UNL     1     -11.724  -0.664 -16.598  0.00  0.00    +0.019 C 
ATOM     14  C   UNL     1     -10.270  -0.258 -16.038  0.00  0.00    +0.003 C 
ATOM     15  C   UNL     1      -9.395   0.258 -17.287  0.00  0.00    +0.019 C 
ATOM     16  C   UNL     1      -9.948   1.653 -17.290  0.00  0.00    +0.109 C 
ATOM     17  O   UNL     1     -11.018   4.098 -17.594  0.00  0.00    -0.252 OA
ENDBRANCH   5   8
BRANCH   3  18
ATOM     18  N   UNL     1     -16.142   6.882 -14.509  0.00  0.00    +0.080 N 
ATOM     19  O   UNL     1     -15.712   7.546 -13.554  0.00  0.00    +0.041 OA
ATOM     20  O   UNL     1     -17.283   6.405 -14.580  0.00  0.00    -0.576 OA
ENDBRANCH   3  18
TORSDOF 2
ENDMDL
MODEL 2
REMARK VINA RESULT:      -6.5      1.740      2.318
REMARK  Name = min_compound919.pdb
REMARK  3 active torsions:
REMARK  status: ('A' for Active; 'I' for Inactive)
REMARK    1  A    between atoms: _1  and  _15
REMARK    2  A    between atoms: _2  and  _16
REMARK    3  A    between atoms: _6  and  _19
REMARK                            x       y       z     vdW  Elec       q    Type
REMARK                         _______ _______ _______ _____ _____    ______ ____
ROOT
ATOM      1  C   UNL     1     -15.796   6.477 -14.577  0.00  0.00    +0.027 A 
ATOM      2  C   UNL     1     -16.560   7.662 -14.063  0.00  0.00    +0.051 C 
ATOM      3  C   UNL     1     -15.268   6.265 -15.868  0.00  0.00    +0.278 A 
ATOM      4  C   UNL     1     -14.486   5.079 -16.250  0.00  0.00    +0.107 A 
ATOM      5  C   UNL     1     -14.186   4.026 -15.358  0.00  0.00    +0.041 A 
ATOM      6  C   UNL     1     -14.709   4.223 -14.076  0.00  0.00    +0.024 A 
ATOM      7  C   UNL     1     -15.475   5.396 -13.706  0.00  0.00    +0.012 A 
ENDROOT
BRANCH   5   8
ATOM      8  N   UNL     1     -13.397   2.855 -15.797  0.00  0.00    -0.269 N 
ATOM      9  H   UNL     1     -13.810   1.954 -15.614  0.00  0.00    +0.156 HD
ATOM     10  C   UNL     1     -12.148   2.855 -16.444  0.00  0.00    +0.306 C 
ATOM     11  N   UNL     1     -11.512   1.584 -16.744  0.00  0.00    -0.285 N 
ATOM     12  C   UNL     1     -12.003   0.225 -16.308  0.00  0.00    +0.109 C 
ATOM     13  C   UNL     1     -11.225  -1.000 -16.688  0.00  0.00    +0.019 C 
ATOM     14  C   UNL     1      -9.784  -0.404 -16.283  0.00  0.00    +0.003 C 
ATOM     15  C   UNL     1      -9.269   0.499 -17.512  0.00  0.00    +0.019 C 
ATOM     16  C   UNL     1     -10.048   1.724 -17.133  0.00  0.00    +0.109 C 
ATOM     17  O   UNL     1     -11.568   3.904 -16.741  0.00  0.00    -0.252 OA
ENDBRANCH   5   8
BRANCH   3  18
ATOM     18  N   UNL     1     -15.492   7.268 -16.915  0.00  0.00    +0.080 N 
ATOM     19  O   UNL     1     -16.521   7.158 -17.597  0.00  0.00    +0.041 OA
ATOM     20  O   UNL     1     -14.653   8.171 -17.044  0.00  0.00    -0.576 OA
ENDBRANCH   3  18
TORSDOF 2
ENDMDL
MODEL 3
REMARK VINA RESULT:      -6.5     12.960     13.983
REMARK  Name = min_compound919.pdb
REMARK  3 active torsions:
REMARK  status: ('A' for Active; 'I' for Inactive)
REMARK    1  A    between atoms: _1  and  _15
REMARK    2  A    between atoms: _2  and  _16
REMARK    3  A    between atoms: _6  and  _19
REMARK                            x       y       z     vdW  Elec       q    Type
REMARK                         _______ _______ _______ _____ _____    ______ ____
ROOT
ATOM      1  C   UNL     1     -15.556   1.105  -7.314  0.00  0.00    +0.027 A 
ATOM      2  C   UNL     1     -15.785   2.160  -8.357  0.00  0.00    +0.051 C 
ATOM      3  C   UNL     1     -16.506   0.287  -6.668  0.00  0.00    +0.278 A 
ATOM      4  C   UNL     1     -16.161  -0.756  -5.690  0.00  0.00    +0.107 A 
ATOM      5  C   UNL     1     -14.836  -1.042  -5.295  0.00  0.00    +0.041 A 
ATOM      6  C   UNL     1     -13.885  -0.233  -5.925  0.00  0.00    +0.024 A 
ATOM      7  C   UNL     1     -14.232   0.790  -6.891  0.00  0.00    +0.012 A 
ENDROOT
BRANCH   5   8
ATOM      8  N   UNL     1     -14.547  -2.102  -4.305  0.00  0.00    -0.269 N 
ATOM      9  H   UNL     1     -14.085  -2.924  -4.664  0.00  0.00    +0.156 HD
ATOM     10  C   UNL     1     -14.832  -2.091  -2.927  0.00  0.00    +0.306 C 
ATOM     11  N   UNL     1     -14.511  -3.266  -2.135  0.00  0.00    -0.285 N 
ATOM     12  C   UNL     1     -14.006  -4.584  -2.671  0.00  0.00    +0.109 C 
ATOM     13  C   UNL     1     -13.731  -5.712  -1.721  0.00  0.00    +0.019 C 
ATOM     14  C   UNL     1     -15.102  -5.557  -0.890  0.00  0.00    +0.003 C 
ATOM     15  C   UNL     1     -14.886  -4.384   0.191  0.00  0.00    +0.019 C 
ATOM     16  C   UNL     1     -15.160  -3.255  -0.759  0.00  0.00    +0.109 C 
ATOM     17  O   UNL     1     -15.369  -1.124  -2.381  0.00  0.00    -0.252 OA
ENDBRANCH   5   8
BRANCH   3  18
ATOM     18  N   UNL     1     -17.932   0.459  -6.968  0.00  0.00    +0.080 N 
ATOM     19  O   UNL     1     -18.555   1.300  -6.304  0.00  0.00    +0.041 OA
ATOM     20  O   UNL     1     -18.423  -0.230  -7.874  0.00  0.00    -0.576 OA
ENDBRANCH   3  18
TORSDOF 2
ENDMDL
MODEL 4
REMARK VINA RESULT:      -6.4      7.170      8.378
REMARK  Name = min_compound919.pdb
REMARK  3 active torsions:
REMARK  status: ('A' for Active; 'I' for Inactive)
REMARK    1  A    between atoms: _1  and  _15
REMARK    2  A    between atoms: _2  and  _16
REMARK    3  A    between atoms: _6  and  _19
REMARK                            x       y       z     vdW  Elec       q    Type
REMARK                         _______ _______ _______ _____ _____    ______ ____
ROOT
ATOM      1  C   UNL     1     -16.538   6.291 -12.333  0.00  0.00    +0.027 A 
ATOM      2  C   UNL     1     -16.801   7.240 -13.467  0.00  0.00    +0.051 C 
ATOM      3  C   UNL     1     -17.184   6.217 -11.082  0.00  0.00    +0.278 A 
ATOM      4  C   UNL     1     -16.875   5.207 -10.058  0.00  0.00    +0.107 A 
ATOM      5  C   UNL     1     -15.894   4.205 -10.226  0.00  0.00    +0.041 A 
ATOM      6  C   UNL     1     -15.242   4.272 -11.461  0.00  0.00    +0.024 A 
ATOM      7  C   UNL     1     -15.554   5.268 -12.467  0.00  0.00    +0.012 A 
ENDROOT
BRANCH   5   8
ATOM      8  N   UNL     1     -15.623   3.215  -9.161  0.00  0.00    -0.269 N 
ATOM      9  H   UNL     1     -14.685   3.211  -8.793  0.00  0.00    +0.156 HD
ATOM     10  C   UNL     1     -16.523   2.290  -8.600  0.00  0.00    +0.306 C 
ATOM     11  N   UNL     1     -16.039   1.361  -7.594  0.00  0.00    -0.285 N 
ATOM     12  C   UNL     1     -14.602   1.192  -7.165  0.00  0.00    +0.109 C 
ATOM     13  C   UNL     1     -14.257   0.175  -6.118  0.00  0.00    +0.019 C 
ATOM     14  C   UNL     1     -15.140  -1.013  -6.752  0.00  0.00    +0.003 C 
ATOM     15  C   UNL     1     -16.661  -0.797  -6.271  0.00  0.00    +0.019 C 
ATOM     16  C   UNL     1     -17.006   0.219  -7.318  0.00  0.00    +0.109 C 
ATOM     17  O   UNL     1     -17.703   2.231  -8.957  0.00  0.00    -0.252 OA
ENDBRANCH   5   8
BRANCH   3  18
ATOM     18  N   UNL     1     -18.232   7.188 -10.750  0.00  0.00    +0.080 N 
ATOM     19  O   UNL     1     -19.300   7.107 -11.373  0.00  0.00    +0.041 OA
ATOM     20  O   UNL     1     -17.995   8.017  -9.859  0.00  0.00    -0.576 OA
ENDBRANCH   3  18
TORSDOF 2
ENDMDL
MODEL 5
REMARK VINA RESULT:      -6.3      3.698      5.088
REMARK  Name = min_compound919.pdb
REMARK  3 active torsions:
REMARK  status: ('A' for Active; 'I' for Inactive)
REMARK    1  A    between atoms: _1  and  _15
REMARK    2  A    between atoms: _2  and  _16
REMARK    3  A    between atoms: _6  and  _19
REMARK                            x       y       z     vdW  Elec       q    Type
REMARK                         _______ _______ _______ _____ _____    ______ ____
ROOT
ATOM      1  C   UNL     1     -18.283   4.369 -11.362  0.00  0.00    +0.027 A 
ATOM      2  C   UNL     1     -19.472   4.470 -10.452  0.00  0.00    +0.051 C 
ATOM      3  C   UNL     1     -17.070   5.087 -11.307  0.00  0.00    +0.278 A 
ATOM      4  C   UNL     1     -15.944   4.869 -12.227  0.00  0.00    +0.107 A 
ATOM      5  C   UNL     1     -15.965   3.914 -13.267  0.00  0.00    +0.041 A 
ATOM      6  C   UNL     1     -17.165   3.199 -13.336  0.00  0.00    +0.024 A 
ATOM      7  C   UNL     1     -18.269   3.416 -12.423  0.00  0.00    +0.012 A 
ENDROOT
BRANCH   5   8
ATOM      8  N   UNL     1     -14.804   3.738 -14.166  0.00  0.00    -0.269 N 
ATOM      9  H   UNL     1     -14.134   3.039 -13.885  0.00  0.00    +0.156 HD
ATOM     10  C   UNL     1     -14.534   4.424 -15.365  0.00  0.00    +0.306 C 
ATOM     11  N   UNL     1     -13.299   4.136 -16.075  0.00  0.00    -0.285 N 
ATOM     12  C   UNL     1     -12.183   3.247 -15.584  0.00  0.00    +0.109 C 
ATOM     13  C   UNL     1     -10.960   3.059 -16.432  0.00  0.00    +0.019 C 
ATOM     14  C   UNL     1     -10.765   4.620 -16.778  0.00  0.00    +0.003 C 
ATOM     15  C   UNL     1     -11.753   4.973 -18.000  0.00  0.00    +0.019 C 
ATOM     16  C   UNL     1     -12.976   5.161 -17.152  0.00  0.00    +0.109 C 
ATOM     17  O   UNL     1     -15.303   5.278 -15.814  0.00  0.00    -0.252 OA
ENDBRANCH   5   8
BRANCH   3  18
ATOM     18  N   UNL     1     -16.888   6.120 -10.280  0.00  0.00    +0.080 N 
ATOM     19  O   UNL     1     -17.398   7.229 -10.494  0.00  0.00    +0.041 OA
ATOM     20  O   UNL     1     -16.254   5.819  -9.259  0.00  0.00    -0.576 OA
ENDBRANCH   3  18
TORSDOF 2
ENDMDL
MODEL 6
REMARK VINA RESULT:      -6.3      3.620      4.266
REMARK  Name = min_compound919.pdb
REMARK  3 active torsions:
REMARK  status: ('A' for Active; 'I' for Inactive)
REMARK    1  A    between atoms: _1  and  _15
REMARK    2  A    between atoms: _2  and  _16
REMARK    3  A    between atoms: _6  and  _19
REMARK                            x       y       z     vdW  Elec       q    Type
REMARK                         _______ _______ _______ _____ _____    ______ ____
ROOT
ATOM      1  C   UNL     1     -18.782   3.573 -13.376  0.00  0.00    +0.027 A 
ATOM      2  C   UNL     1     -20.072   4.021 -12.752  0.00  0.00    +0.051 C 
ATOM      3  C   UNL     1     -17.533   3.364 -12.757  0.00  0.00    +0.278 A 
ATOM      4  C   UNL     1     -16.339   2.873 -13.463  0.00  0.00    +0.107 A 
ATOM      5  C   UNL     1     -16.325   2.561 -14.840  0.00  0.00    +0.041 A 
ATOM      6  C   UNL     1     -17.557   2.770 -15.466  0.00  0.00    +0.024 A 
ATOM      7  C   UNL     1     -18.730   3.251 -14.764  0.00  0.00    +0.012 A 
ENDROOT
BRANCH   5   8
ATOM      8  N   UNL     1     -15.094   2.072 -15.499  0.00  0.00    -0.269 N 
ATOM      9  H   UNL     1     -15.081   1.090 -15.729  0.00  0.00    +0.156 HD
ATOM     10  C   UNL     1     -13.952   2.816 -15.847  0.00  0.00    +0.306 C 
ATOM     11  N   UNL     1     -12.821   2.127 -16.444  0.00  0.00    -0.285 N 
ATOM     12  C   UNL     1     -12.686   0.635 -16.619  0.00  0.00    +0.109 C 
ATOM     13  C   UNL     1     -11.444   0.072 -17.245  0.00  0.00    +0.019 C 
ATOM     14  C   UNL     1     -10.415   0.962 -16.384  0.00  0.00    +0.003 C 
ATOM     15  C   UNL     1     -10.310   2.405 -17.090  0.00  0.00    +0.019 C 
ATOM     16  C   UNL     1     -11.552   2.967 -16.465  0.00  0.00    +0.109 C 
ATOM     17  O   UNL     1     -13.877   4.030 -15.637  0.00  0.00    -0.252 OA
ENDBRANCH   5   8
BRANCH   3  18
ATOM     18  N   UNL     1     -17.380   3.642 -11.325  0.00  0.00    +0.080 N 
ATOM     19  O   UNL     1     -17.183   4.820 -10.992  0.00  0.00    +0.041 OA
ATOM     20  O   UNL     1     -17.473   2.692 -10.535  0.00  0.00    -0.576 OA
ENDBRANCH   3  18
TORSDOF 2
ENDMDL
MODEL 7
REMARK VINA RESULT:      -6.1      2.454      7.393
REMARK  Name = min_compound919.pdb
REMARK  3 active torsions:
REMARK  status: ('A' for Active; 'I' for Inactive)
REMARK    1  A    between atoms: _1  and  _15
REMARK    2  A    between atoms: _2  and  _16
REMARK    3  A    between atoms: _6  and  _19
REMARK                            x       y       z     vdW  Elec       q    Type
REMARK                         _______ _______ _______ _____ _____    ______ ____
ROOT
ATOM      1  C   UNL     1     -10.317   1.132 -17.112  0.00  0.00    +0.027 A 
ATOM      2  C   UNL     1      -9.159   0.200 -17.325  0.00  0.00    +0.051 C 
ATOM      3  C   UNL     1     -11.608   0.833 -16.630  0.00  0.00    +0.278 A 
ATOM      4  C   UNL     1     -12.656   1.842 -16.414  0.00  0.00    +0.107 A 
ATOM      5  C   UNL     1     -12.475   3.218 -16.670  0.00  0.00    +0.041 A 
ATOM      6  C   UNL     1     -11.200   3.526 -17.154  0.00  0.00    +0.024 A 
ATOM      7  C   UNL     1     -10.170   2.528 -17.361  0.00  0.00    +0.012 A 
ENDROOT
BRANCH   5   8
ATOM      8  N   UNL     1     -13.566   4.189 -16.435  0.00  0.00    -0.269 N 
ATOM      9  H   UNL     1     -13.838   4.744 -17.231  0.00  0.00    +0.156 HD
ATOM     10  C   UNL     1     -14.268   4.418 -15.238  0.00  0.00    +0.306 C 
ATOM     11  N   UNL     1     -15.275   5.465 -15.204  0.00  0.00    -0.285 N 
ATOM     12  C   UNL     1     -15.569   6.446 -16.313  0.00  0.00    +0.109 C 
ATOM     13  C   UNL     1     -16.637   7.481 -16.121  0.00  0.00    +0.019 C 
ATOM     14  C   UNL     1     -16.167   7.923 -14.645  0.00  0.00    +0.003 C 
ATOM     15  C   UNL     1     -16.783   6.863 -13.601  0.00  0.00    +0.019 C 
ATOM     16  C   UNL     1     -15.715   5.828 -13.794  0.00  0.00    +0.109 C 
ATOM     17  O   UNL     1     -14.034   3.774 -14.212  0.00  0.00    -0.252 OA
ENDBRANCH   5   8
BRANCH   3  18
ATOM     18  N   UNL     1     -11.959  -0.556 -16.315  0.00  0.00    +0.080 N 
ATOM     19  O   UNL     1     -11.034  -1.318 -15.996  0.00  0.00    +0.041 OA
ATOM     20  O   UNL     1     -13.154  -0.880 -16.369  0.00  0.00    -0.576 OA
ENDBRANCH   3  18
TORSDOF 2
ENDMDL
MODEL 8
REMARK VINA RESULT:      -6.1      2.023      3.122
REMARK  Name = min_compound919.pdb
REMARK  3 active torsions:
REMARK  status: ('A' for Active; 'I' for Inactive)
REMARK    1  A    between atoms: _1  and  _15
REMARK    2  A    between atoms: _2  and  _16
REMARK    3  A    between atoms: _6  and  _19
REMARK                            x       y       z     vdW  Elec       q    Type
REMARK                         _______ _______ _______ _____ _____    ______ ____
ROOT
ATOM      1  C   UNL     1     -16.774   9.534 -17.287  0.00  0.00    +0.027 A 
ATOM      2  C   UNL     1     -17.825  10.583 -17.505  0.00  0.00    +0.051 C 
ATOM      3  C   UNL     1     -16.260   9.044 -16.069  0.00  0.00    +0.278 A 
ATOM      4  C   UNL     1     -15.258   7.971 -15.973  0.00  0.00    +0.107 A 
ATOM      5  C   UNL     1     -14.706   7.321 -17.098  0.00  0.00    +0.041 A 
ATOM      6  C   UNL     1     -15.204   7.802 -18.313  0.00  0.00    +0.024 A 
ATOM      7  C   UNL     1     -16.194   8.857 -18.400  0.00  0.00    +0.012 A 
ENDROOT
BRANCH   5   8
ATOM      8  N   UNL     1     -13.700   6.248 -16.943  0.00  0.00    -0.269 N 
ATOM      9  H   UNL     1     -12.746   6.511 -17.134  0.00  0.00    +0.156 HD
ATOM     10  C   UNL     1     -13.921   4.914 -16.552  0.00  0.00    +0.306 C 
ATOM     11  N   UNL     1     -12.793   3.999 -16.514  0.00  0.00    -0.285 N 
ATOM     12  C   UNL     1     -11.391   4.302 -16.983  0.00  0.00    +0.109 C 
ATOM     13  C   UNL     1     -10.334   3.242 -16.889  0.00  0.00    +0.019 C 
ATOM     14  C   UNL     1     -11.240   2.060 -17.502  0.00  0.00    +0.003 C 
ATOM     15  C   UNL     1     -12.153   1.480 -16.309  0.00  0.00    +0.019 C 
ATOM     16  C   UNL     1     -13.210   2.540 -16.403  0.00  0.00    +0.109 C 
ATOM     17  O   UNL     1     -15.046   4.496 -16.268  0.00  0.00    -0.252 OA
ENDBRANCH   5   8
BRANCH   3  18
ATOM     18  N   UNL     1     -16.732   9.616 -14.803  0.00  0.00    +0.080 N 
ATOM     19  O   UNL     1     -17.741   9.110 -14.291  0.00  0.00    +0.041 OA
ATOM     20  O   UNL     1     -16.088  10.555 -14.313  0.00  0.00    -0.576 OA
ENDBRANCH   3  18
TORSDOF 2
ENDMDL
MODEL 9
REMARK VINA RESULT:      -6.0      7.150      8.397
REMARK  Name = min_compound919.pdb
REMARK  3 active torsions:
REMARK  status: ('A' for Active; 'I' for Inactive)
REMARK    1  A    between atoms: _1  and  _15
REMARK    2  A    between atoms: _2  and  _16
REMARK    3  A    between atoms: _6  and  _19
REMARK                            x       y       z     vdW  Elec       q    Type
REMARK                         _______ _______ _______ _____ _____    ______ ____
ROOT
ATOM      1  C   UNL     1     -16.631   5.995 -12.493  0.00  0.00    +0.027 A 
ATOM      2  C   UNL     1     -16.952   7.022 -13.540  0.00  0.00    +0.051 C 
ATOM      3  C   UNL     1     -16.053   4.720 -12.660  0.00  0.00    +0.278 A 
ATOM      4  C   UNL     1     -15.735   3.810 -11.549  0.00  0.00    +0.107 A 
ATOM      5  C   UNL     1     -15.979   4.124 -10.194  0.00  0.00    +0.041 A 
ATOM      6  C   UNL     1     -16.557   5.385 -10.015  0.00  0.00    +0.024 A 
ATOM      7  C   UNL     1     -16.865   6.278 -11.115  0.00  0.00    +0.012 A 
ENDROOT
BRANCH   5   8
ATOM      8  N   UNL     1     -15.640   3.170  -9.116  0.00  0.00    -0.269 N 
ATOM      9  H   UNL     1     -14.669   3.140  -8.846  0.00  0.00    +0.156 HD
ATOM     10  C   UNL     1     -16.514   2.313  -8.422  0.00  0.00    +0.306 C 
ATOM     11  N   UNL     1     -15.965   1.408  -7.427  0.00  0.00    -0.285 N 
ATOM     12  C   UNL     1     -14.499   1.193  -7.139  0.00  0.00    +0.109 C 
ATOM     13  C   UNL     1     -14.089   0.208  -6.084  0.00  0.00    +0.019 C 
ATOM     14  C   UNL     1     -15.081  -0.965  -6.567  0.00  0.00    +0.003 C 
ATOM     15  C   UNL     1     -16.534  -0.660  -5.944  0.00  0.00    +0.019 C 
ATOM     16  C   UNL     1     -16.944   0.325  -6.999  0.00  0.00    +0.109 C 
ATOM     17  O   UNL     1     -17.726   2.291  -8.654  0.00  0.00    -0.252 OA
ENDBRANCH   5   8
BRANCH   3  18
ATOM     18  N   UNL     1     -15.737   4.241 -14.011  0.00  0.00    +0.080 N 
ATOM     19  O   UNL     1     -14.577   4.405 -14.415  0.00  0.00    +0.041 OA
ATOM     20  O   UNL     1     -16.639   3.688 -14.657  0.00  0.00    -0.576 OA
ENDBRANCH   3  18
TORSDOF 2
ENDMDL
