MODEL 1
REMARK VINA RESULT:      -7.7      0.000      0.000
REMARK  Name = min_compound988.pdb
REMARK  7 active torsions:
REMARK  status: ('A' for Active; 'I' for Inactive)
REMARK    1  A    between atoms: _2  and  _21
REMARK    2  A    between atoms: _8  and  _14
REMARK    3  A    between atoms: _10  and  _12
REMARK    4  A    between atoms: _13  and  _14
REMARK    5  A    between atoms: _13  and  _17
REMARK    6  A    between atoms: _14  and  _15
REMARK    7  A    between atoms: _14  and  _16
REMARK                            x       y       z     vdW  Elec       q    Type
REMARK                         _______ _______ _______ _____ _____    ______ ____
ROOT
ATOM      1  O   UNL     1     -14.660   3.811 -15.788  0.00  0.00    -0.342 OA
ENDROOT
BRANCH   1   3
ATOM      2  N   UNL     1     -13.517   1.932 -16.337  0.00  0.00    -0.216 NA
ATOM      3  C   UNL     1     -13.432   3.223 -15.947  0.00  0.00    +0.248 A 
ATOM      4  C   UNL     1     -12.209   3.859 -15.679  0.00  0.00    +0.092 A 
ATOM      5  C   UNL     1     -11.004   3.168 -15.837  0.00  0.00    +0.035 A 
ATOM      6  C   UNL     1     -11.099   1.830 -16.160  0.00  0.00    -0.005 A 
ATOM      7  C   UNL     1     -10.031   0.784 -16.211  0.00  0.00    +0.039 C 
ATOM      8  C   UNL     1     -10.746  -0.347 -16.962  0.00  0.00    +0.011 C 
ATOM      9  C   UNL     1     -12.239  -0.209 -16.639  0.00  0.00    +0.056 C 
ATOM     10  C   UNL     1     -12.349   1.272 -16.405  0.00  0.00    +0.050 A 
BRANCH   5  11
ATOM     11  N   UNL     1      -9.800   3.743 -15.431  0.00  0.00    -0.358 N 
ATOM     12  H   UNL     1      -9.266   4.196 -16.168  0.00  0.00    +0.142 HD
ATOM     13  H   UNL     1      -9.218   3.146 -14.852  0.00  0.00    +0.142 HD
ENDBRANCH   5  11
ENDBRANCH   1   3
BRANCH   1  14
ATOM     14  S   UNL     1     -15.924   3.009 -15.700  0.00  0.00    -0.013 S 
BRANCH  14  15
ATOM     15  C   UNL     1     -16.039   3.442 -13.793  0.00  0.00    +0.098 A 
ATOM     16  C   UNL     1     -15.141   4.356 -13.219  0.00  0.00    +0.028 A 
ATOM     17  C   UNL     1     -15.247   4.668 -11.861  0.00  0.00    +0.005 A 
ATOM     18  C   UNL     1     -16.234   4.072 -11.065  0.00  0.00    -0.050 A 
ATOM     19  C   UNL     1     -16.378   4.460  -9.622  0.00  0.00    +0.044 C 
ATOM     20  C   UNL     1     -17.131   3.170 -11.649  0.00  0.00    +0.005 A 
ATOM     21  C   UNL     1     -17.035   2.845 -13.005  0.00  0.00    +0.028 A 
ENDBRANCH  14  15
BRANCH  14  22
ATOM     22  O   UNL     1     -16.602   4.176 -16.328  0.00  0.00    -0.263 OA
ATOM     23  H   UNL     1     -17.546   3.981 -16.437  0.00  0.00    +0.244 HD
ENDBRANCH  14  22
BRANCH  14  24
ATOM     24  O   UNL     1     -17.188   2.206 -15.612  0.00  0.00    -0.263 OA
ATOM     25  H   UNL     1     -17.280   1.658 -16.407  0.00  0.00    +0.244 HD
ENDBRANCH  14  24
ENDBRANCH   1  14
TORSDOF 6
ENDMDL
MODEL 2
REMARK VINA RESULT:      -7.2      1.284      2.225
REMARK  Name = min_compound988.pdb
REMARK  7 active torsions:
REMARK  status: ('A' for Active; 'I' for Inactive)
REMARK    1  A    between atoms: _2  and  _21
REMARK    2  A    between atoms: _8  and  _14
REMARK    3  A    between atoms: _10  and  _12
REMARK    4  A    between atoms: _13  and  _14
REMARK    5  A    between atoms: _13  and  _17
REMARK    6  A    between atoms: _14  and  _15
REMARK    7  A    between atoms: _14  and  _16
REMARK                            x       y       z     vdW  Elec       q    Type
REMARK                         _______ _______ _______ _____ _____    ______ ____
ROOT
ATOM      1  O   UNL     1     -13.861   4.111 -15.523  0.00  0.00    -0.342 OA
ENDROOT
BRANCH   1   3
ATOM      2  N   UNL     1     -12.217   2.555 -15.408  0.00  0.00    -0.216 NA
ATOM      3  C   UNL     1     -13.178   3.117 -16.174  0.00  0.00    +0.248 A 
ATOM      4  C   UNL     1     -13.398   2.750 -17.512  0.00  0.00    +0.092 A 
ATOM      5  C   UNL     1     -12.628   1.745 -18.103  0.00  0.00    +0.035 A 
ATOM      6  C   UNL     1     -11.598   1.229 -17.344  0.00  0.00    -0.005 A 
ATOM      7  C   UNL     1     -10.494   0.302 -17.739  0.00  0.00    +0.039 C 
ATOM      8  C   UNL     1      -9.945  -0.123 -16.370  0.00  0.00    +0.011 C 
ATOM      9  C   UNL     1     -10.211   1.046 -15.413  0.00  0.00    +0.056 C 
ATOM     10  C   UNL     1     -11.443   1.649 -16.026  0.00  0.00    +0.050 A 
BRANCH   5  11
ATOM     11  N   UNL     1     -12.738   1.479 -19.468  0.00  0.00    -0.358 N 
ATOM     12  H   UNL     1     -11.856   1.379 -19.963  0.00  0.00    +0.142 HD
ATOM     13  H   UNL     1     -13.388   2.078 -19.967  0.00  0.00    +0.142 HD
ENDBRANCH   5  11
ENDBRANCH   1   3
BRANCH   1  14
ATOM     14  S   UNL     1     -15.304   4.408 -15.810  0.00  0.00    -0.013 S 
BRANCH  14  15
ATOM     15  C   UNL     1     -15.715   4.121 -13.916  0.00  0.00    +0.098 A 
ATOM     16  C   UNL     1     -16.739   3.239 -13.539  0.00  0.00    +0.028 A 
ATOM     17  C   UNL     1     -17.009   3.031 -12.183  0.00  0.00    +0.005 A 
ATOM     18  C   UNL     1     -16.274   3.701 -11.197  0.00  0.00    -0.050 A 
ATOM     19  C   UNL     1     -16.530   3.426  -9.745  0.00  0.00    +0.044 C 
ATOM     20  C   UNL     1     -15.247   4.572 -11.583  0.00  0.00    +0.005 A 
ATOM     21  C   UNL     1     -14.968   4.792 -12.935  0.00  0.00    +0.028 A 
ENDBRANCH  14  15
BRANCH  14  22
ATOM     22  O   UNL     1     -14.911   5.844 -15.832  0.00  0.00    -0.263 OA
ATOM     23  H   UNL     1     -15.376   6.317 -15.125  0.00  0.00    +0.244 HD
ENDBRANCH  14  22
BRANCH  14  24
ATOM     24  O   UNL     1     -16.746   4.705 -16.096  0.00  0.00    -0.263 OA
ATOM     25  H   UNL     1     -16.807   5.325 -16.839  0.00  0.00    +0.244 HD
ENDBRANCH  14  24
ENDBRANCH   1  14
TORSDOF 6
ENDMDL
MODEL 3
REMARK VINA RESULT:      -7.1      4.457      6.399
REMARK  Name = min_compound988.pdb
REMARK  7 active torsions:
REMARK  status: ('A' for Active; 'I' for Inactive)
REMARK    1  A    between atoms: _2  and  _21
REMARK    2  A    between atoms: _8  and  _14
REMARK    3  A    between atoms: _10  and  _12
REMARK    4  A    between atoms: _13  and  _14
REMARK    5  A    between atoms: _13  and  _17
REMARK    6  A    between atoms: _14  and  _15
REMARK    7  A    between atoms: _14  and  _16
REMARK                            x       y       z     vdW  Elec       q    Type
REMARK                         _______ _______ _______ _____ _____    ______ ____
ROOT
ATOM      1  O   UNL     1     -13.327   3.073 -19.029  0.00  0.00    -0.342 OA
ENDROOT
BRANCH   1   3
ATOM      2  N   UNL     1     -12.269   1.293 -18.107  0.00  0.00    -0.216 NA
ATOM      3  C   UNL     1     -12.403   2.637 -18.115  0.00  0.00    +0.248 A 
ATOM      4  C   UNL     1     -11.707   3.477 -17.231  0.00  0.00    +0.092 A 
ATOM      5  C   UNL     1     -10.807   2.939 -16.307  0.00  0.00    +0.035 A 
ATOM      6  C   UNL     1     -10.732   1.562 -16.249  0.00  0.00    -0.005 A 
ATOM      7  C   UNL     1     -10.027   0.687 -15.263  0.00  0.00    +0.039 C 
ATOM      8  C   UNL     1     -10.059  -0.669 -15.980  0.00  0.00    +0.011 C 
ATOM      9  C   UNL     1     -11.315  -0.667 -16.861  0.00  0.00    +0.056 C 
ATOM     10  C   UNL     1     -11.458   0.799 -17.158  0.00  0.00    +0.050 A 
BRANCH   5  11
ATOM     11  N   UNL     1     -10.226   3.748 -15.330  0.00  0.00    -0.358 N 
ATOM     12  H   UNL     1     -10.264   3.379 -14.384  0.00  0.00    +0.142 HD
ATOM     13  H   UNL     1     -10.500   4.724 -15.369  0.00  0.00    +0.142 HD
ENDBRANCH   5  11
ENDBRANCH   1   3
BRANCH   1  14
ATOM     14  S   UNL     1     -14.235   4.235 -18.755  0.00  0.00    -0.013 S 
BRANCH  14  15
ATOM     15  C   UNL     1     -13.110   5.355 -19.902  0.00  0.00    +0.098 A 
ATOM     16  C   UNL     1     -13.091   5.151 -21.291  0.00  0.00    +0.028 A 
ATOM     17  C   UNL     1     -12.297   5.971 -22.099  0.00  0.00    +0.005 A 
ATOM     18  C   UNL     1     -11.513   6.986 -21.537  0.00  0.00    -0.050 A 
ATOM     19  C   UNL     1     -10.711   7.899 -22.417  0.00  0.00    +0.044 C 
ATOM     20  C   UNL     1     -11.547   7.188 -20.151  0.00  0.00    +0.005 A 
ATOM     21  C   UNL     1     -12.334   6.374 -19.331  0.00  0.00    +0.028 A 
ENDBRANCH  14  15
BRANCH  14  22
ATOM     22  O   UNL     1     -15.170   3.620 -19.737  0.00  0.00    -0.263 OA
ATOM     23  H   UNL     1     -14.736   3.558 -20.601  0.00  0.00    +0.244 HD
ENDBRANCH  14  22
BRANCH  14  24
ATOM     24  O   UNL     1     -15.143   5.397 -18.481  0.00  0.00    -0.263 OA
ATOM     25  H   UNL     1     -15.662   5.221 -17.681  0.00  0.00    +0.244 HD
ENDBRANCH  14  24
ENDBRANCH   1  14
TORSDOF 6
ENDMDL
MODEL 4
REMARK VINA RESULT:      -7.0      2.241      6.565
REMARK  Name = min_compound988.pdb
REMARK  7 active torsions:
REMARK  status: ('A' for Active; 'I' for Inactive)
REMARK    1  A    between atoms: _2  and  _21
REMARK    2  A    between atoms: _8  and  _14
REMARK    3  A    between atoms: _10  and  _12
REMARK    4  A    between atoms: _13  and  _14
REMARK    5  A    between atoms: _13  and  _17
REMARK    6  A    between atoms: _14  and  _15
REMARK    7  A    between atoms: _14  and  _16
REMARK                            x       y       z     vdW  Elec       q    Type
REMARK                         _______ _______ _______ _____ _____    ______ ____
ROOT
ATOM      1  O   UNL     1     -13.790   3.868 -17.370  0.00  0.00    -0.342 OA
ENDROOT
BRANCH   1   3
ATOM      2  N   UNL     1     -14.341   4.292 -15.213  0.00  0.00    -0.216 NA
ATOM      3  C   UNL     1     -14.761   3.813 -16.404  0.00  0.00    +0.248 A 
ATOM      4  C   UNL     1     -16.040   3.266 -16.597  0.00  0.00    +0.092 A 
ATOM      5  C   UNL     1     -16.955   3.222 -15.542  0.00  0.00    +0.035 A 
ATOM      6  C   UNL     1     -16.497   3.639 -14.310  0.00  0.00    -0.005 A 
ATOM      7  C   UNL     1     -17.148   3.540 -12.968  0.00  0.00    +0.039 C 
ATOM      8  C   UNL     1     -16.275   4.487 -12.134  0.00  0.00    +0.011 C 
ATOM      9  C   UNL     1     -14.878   4.463 -12.765  0.00  0.00    +0.056 C 
ATOM     10  C   UNL     1     -15.214   4.165 -14.200  0.00  0.00    +0.050 A 
BRANCH   5  11
ATOM     11  N   UNL     1     -18.169   2.548 -15.685  0.00  0.00    -0.358 N 
ATOM     12  H   UNL     1     -18.689   2.768 -16.530  0.00  0.00    +0.142 HD
ATOM     13  H   UNL     1     -18.759   2.556 -14.860  0.00  0.00    +0.142 HD
ENDBRANCH   5  11
ENDBRANCH   1   3
BRANCH   1  14
ATOM     14  S   UNL     1     -12.480   4.563 -17.146  0.00  0.00    -0.013 S 
BRANCH  14  15
ATOM     15  C   UNL     1     -11.638   2.823 -16.827  0.00  0.00    +0.098 A 
ATOM     16  C   UNL     1     -11.710   1.813 -17.799  0.00  0.00    +0.028 A 
ATOM     17  C   UNL     1     -11.089   0.583 -17.564  0.00  0.00    +0.005 A 
ATOM     18  C   UNL     1     -10.403   0.345 -16.367  0.00  0.00    -0.050 A 
ATOM     19  C   UNL     1      -9.688  -0.956 -16.149  0.00  0.00    +0.044 C 
ATOM     20  C   UNL     1     -10.327   1.363 -15.408  0.00  0.00    +0.005 A 
ATOM     21  C   UNL     1     -10.947   2.597 -15.628  0.00  0.00    +0.028 A 
ENDBRANCH  14  15
BRANCH  14  22
ATOM     22  O   UNL     1     -12.395   4.686 -18.628  0.00  0.00    -0.263 OA
ATOM     23  H   UNL     1     -11.762   4.036 -18.970  0.00  0.00    +0.244 HD
ENDBRANCH  14  22
BRANCH  14  24
ATOM     24  O   UNL     1     -11.169   5.258 -16.923  0.00  0.00    -0.263 OA
ATOM     25  H   UNL     1     -11.040   5.932 -17.608  0.00  0.00    +0.244 HD
ENDBRANCH  14  24
ENDBRANCH   1  14
TORSDOF 6
ENDMDL
MODEL 5
REMARK VINA RESULT:      -7.0      3.914      6.251
REMARK  Name = min_compound988.pdb
REMARK  7 active torsions:
REMARK  status: ('A' for Active; 'I' for Inactive)
REMARK    1  A    between atoms: _2  and  _21
REMARK    2  A    between atoms: _8  and  _14
REMARK    3  A    between atoms: _10  and  _12
REMARK    4  A    between atoms: _13  and  _14
REMARK    5  A    between atoms: _13  and  _17
REMARK    6  A    between atoms: _14  and  _15
REMARK    7  A    between atoms: _14  and  _16
REMARK                            x       y       z     vdW  Elec       q    Type
REMARK                         _______ _______ _______ _____ _____    ______ ____
ROOT
ATOM      1  O   UNL     1     -13.165   4.211 -16.777  0.00  0.00    -0.342 OA
ENDROOT
BRANCH   1   3
ATOM      2  N   UNL     1     -12.206   5.564 -18.321  0.00  0.00    -0.216 NA
ATOM      3  C   UNL     1     -13.042   4.525 -18.106  0.00  0.00    +0.248 A 
ATOM      4  C   UNL     1     -13.747   3.888 -19.139  0.00  0.00    +0.092 A 
ATOM      5  C   UNL     1     -13.583   4.300 -20.464  0.00  0.00    +0.035 A 
ATOM      6  C   UNL     1     -12.790   5.409 -20.671  0.00  0.00    -0.005 A 
ATOM      7  C   UNL     1     -12.570   6.204 -21.919  0.00  0.00    +0.039 C 
ATOM      8  C   UNL     1     -11.342   7.041 -21.536  0.00  0.00    +0.011 C 
ATOM      9  C   UNL     1     -11.404   7.235 -20.016  0.00  0.00    +0.056 C 
ATOM     10  C   UNL     1     -12.128   5.988 -19.594  0.00  0.00    +0.050 A 
BRANCH   5  11
ATOM     11  N   UNL     1     -14.389   3.773 -21.474  0.00  0.00    -0.358 N 
ATOM     12  H   UNL     1     -15.087   3.102 -21.166  0.00  0.00    +0.142 HD
ATOM     13  H   UNL     1     -13.886   3.451 -22.295  0.00  0.00    +0.142 HD
ENDBRANCH   5  11
ENDBRANCH   1   3
BRANCH   1  14
ATOM     14  S   UNL     1     -14.107   3.148 -16.292  0.00  0.00    -0.013 S 
BRANCH  14  15
ATOM     15  C   UNL     1     -12.614   1.881 -16.243  0.00  0.00    +0.098 A 
ATOM     16  C   UNL     1     -11.388   2.252 -15.669  0.00  0.00    +0.028 A 
ATOM     17  C   UNL     1     -10.338   1.330 -15.625  0.00  0.00    +0.005 A 
ATOM     18  C   UNL     1     -10.493   0.044 -16.156  0.00  0.00    -0.050 A 
ATOM     19  C   UNL     1      -9.381  -0.958 -16.050  0.00  0.00    +0.044 C 
ATOM     20  C   UNL     1     -11.723  -0.321 -16.718  0.00  0.00    +0.005 A 
ATOM     21  C   UNL     1     -12.781   0.592 -16.771  0.00  0.00    +0.028 A 
ENDBRANCH  14  15
BRANCH  14  22
ATOM     22  O   UNL     1     -14.010   3.799 -14.957  0.00  0.00    -0.263 OA
ATOM     23  H   UNL     1     -14.829   4.285 -14.774  0.00  0.00    +0.244 HD
ENDBRANCH  14  22
BRANCH  14  24
ATOM     24  O   UNL     1     -15.048   2.086 -15.808  0.00  0.00    -0.263 OA
ATOM     25  H   UNL     1     -15.690   2.477 -15.195  0.00  0.00    +0.244 HD
ENDBRANCH  14  24
ENDBRANCH   1  14
TORSDOF 6
ENDMDL
MODEL 6
REMARK VINA RESULT:      -6.9      5.881      8.914
REMARK  Name = min_compound988.pdb
REMARK  7 active torsions:
REMARK  status: ('A' for Active; 'I' for Inactive)
REMARK    1  A    between atoms: _2  and  _21
REMARK    2  A    between atoms: _8  and  _14
REMARK    3  A    between atoms: _10  and  _12
REMARK    4  A    between atoms: _13  and  _14
REMARK    5  A    between atoms: _13  and  _17
REMARK    6  A    between atoms: _14  and  _15
REMARK    7  A    between atoms: _14  and  _16
REMARK                            x       y       z     vdW  Elec       q    Type
REMARK                         _______ _______ _______ _____ _____    ______ ____
ROOT
ATOM      1  O   UNL     1     -17.289   1.521  -8.468  0.00  0.00    -0.342 OA
ENDROOT
BRANCH   1   3
ATOM      2  N   UNL     1     -16.336   1.998  -6.468  0.00  0.00    -0.216 NA
ATOM      3  C   UNL     1     -16.553   1.055  -7.410  0.00  0.00    +0.248 A 
ATOM      4  C   UNL     1     -16.021  -0.243  -7.326  0.00  0.00    +0.092 A 
ATOM      5  C   UNL     1     -15.251  -0.620  -6.223  0.00  0.00    +0.035 A 
ATOM      6  C   UNL     1     -14.968   0.368  -5.302  0.00  0.00    -0.005 A 
ATOM      7  C   UNL     1     -14.033   0.343  -4.136  0.00  0.00    +0.039 C 
ATOM      8  C   UNL     1     -14.467   1.598  -3.368  0.00  0.00    +0.011 C 
ATOM      9  C   UNL     1     -15.017   2.579  -4.411  0.00  0.00    +0.056 C 
ATOM     10  C   UNL     1     -15.530   1.631  -5.458  0.00  0.00    +0.050 A 
BRANCH   5  11
ATOM     11  N   UNL     1     -14.598  -1.852  -6.203  0.00  0.00    -0.358 N 
ATOM     12  H   UNL     1     -13.676  -1.847  -5.776  0.00  0.00    +0.142 HD
ATOM     13  H   UNL     1     -14.606  -2.351  -7.087  0.00  0.00    +0.142 HD
ENDBRANCH   5  11
ENDBRANCH   1   3
BRANCH   1  14
ATOM     14  S   UNL     1     -18.019   2.831  -8.417  0.00  0.00    -0.013 S 
BRANCH  14  15
ATOM     15  C   UNL     1     -17.082   3.390 -10.044  0.00  0.00    +0.098 A 
ATOM     16  C   UNL     1     -17.577   3.026 -11.306  0.00  0.00    +0.028 A 
ATOM     17  C   UNL     1     -16.907   3.448 -12.459  0.00  0.00    +0.005 A 
ATOM     18  C   UNL     1     -15.744   4.222 -12.367  0.00  0.00    -0.050 A 
ATOM     19  C   UNL     1     -15.067   4.720 -13.610  0.00  0.00    +0.044 C 
ATOM     20  C   UNL     1     -15.264   4.588 -11.104  0.00  0.00    +0.005 A 
ATOM     21  C   UNL     1     -15.921   4.171  -9.943  0.00  0.00    +0.028 A 
ENDBRANCH  14  15
BRANCH  14  22
ATOM     22  O   UNL     1     -19.192   2.095  -8.967  0.00  0.00    -0.263 OA
ATOM     23  H   UNL     1     -19.528   2.562  -9.747  0.00  0.00    +0.244 HD
ENDBRANCH  14  22
BRANCH  14  24
ATOM     24  O   UNL     1     -18.749   4.140  -8.366  0.00  0.00    -0.263 OA
ATOM     25  H   UNL     1     -18.110   4.864  -8.279  0.00  0.00    +0.244 HD
ENDBRANCH  14  24
ENDBRANCH   1  14
TORSDOF 6
ENDMDL
MODEL 7
REMARK VINA RESULT:      -6.9      2.166      2.838
REMARK  Name = min_compound988.pdb
REMARK  7 active torsions:
REMARK  status: ('A' for Active; 'I' for Inactive)
REMARK    1  A    between atoms: _2  and  _21
REMARK    2  A    between atoms: _8  and  _14
REMARK    3  A    between atoms: _10  and  _12
REMARK    4  A    between atoms: _13  and  _14
REMARK    5  A    between atoms: _13  and  _17
REMARK    6  A    between atoms: _14  and  _15
REMARK    7  A    between atoms: _14  and  _16
REMARK                            x       y       z     vdW  Elec       q    Type
REMARK                         _______ _______ _______ _____ _____    ______ ____
ROOT
ATOM      1  O   UNL     1     -14.974   3.156 -16.222  0.00  0.00    -0.342 OA
ENDROOT
BRANCH   1   3
ATOM      2  N   UNL     1     -13.510   1.460 -16.564  0.00  0.00    -0.216 NA
ATOM      3  C   UNL     1     -13.663   2.756 -16.215  0.00  0.00    +0.248 A 
ATOM      4  C   UNL     1     -12.588   3.575 -15.831  0.00  0.00    +0.092 A 
ATOM      5  C   UNL     1     -11.285   3.070 -15.822  0.00  0.00    +0.035 A 
ATOM      6  C   UNL     1     -11.142   1.727 -16.103  0.00  0.00    -0.005 A 
ATOM      7  C   UNL     1      -9.934   0.853 -15.991  0.00  0.00    +0.039 C 
ATOM      8  C   UNL     1     -10.379  -0.387 -16.777  0.00  0.00    +0.011 C 
ATOM      9  C   UNL     1     -11.904  -0.469 -16.635  0.00  0.00    +0.056 C 
ATOM     10  C   UNL     1     -12.258   0.982 -16.471  0.00  0.00    +0.050 A 
BRANCH   5  11
ATOM     11  N   UNL     1     -10.236   3.828 -15.300  0.00  0.00    -0.358 N 
ATOM     12  H   UNL     1      -9.956   3.585 -14.354  0.00  0.00    +0.142 HD
ATOM     13  H   UNL     1     -10.333   4.830 -15.424  0.00  0.00    +0.142 HD
ENDBRANCH   5  11
ENDBRANCH   1   3
BRANCH   1  14
ATOM     14  S   UNL     1     -15.816   3.156 -14.980  0.00  0.00    -0.013 S 
BRANCH  14  15
ATOM     15  C   UNL     1     -15.788   5.115 -14.990  0.00  0.00    +0.098 A 
ATOM     16  C   UNL     1     -15.819   5.817 -16.205  0.00  0.00    +0.028 A 
ATOM     17  C   UNL     1     -15.817   7.215 -16.196  0.00  0.00    +0.005 A 
ATOM     18  C   UNL     1     -15.776   7.922 -14.988  0.00  0.00    -0.050 A 
ATOM     19  C   UNL     1     -15.836   9.421 -14.986  0.00  0.00    +0.044 C 
ATOM     20  C   UNL     1     -15.756   7.213 -13.780  0.00  0.00    +0.005 A 
ATOM     21  C   UNL     1     -15.754   5.815 -13.775  0.00  0.00    +0.028 A 
ENDBRANCH  14  15
BRANCH  14  22
ATOM     22  O   UNL     1     -16.970   2.854 -15.870  0.00  0.00    -0.263 OA
ATOM     23  H   UNL     1     -17.796   3.091 -15.420  0.00  0.00    +0.244 HD
ENDBRANCH  14  22
BRANCH  14  24
ATOM     24  O   UNL     1     -16.657   3.157 -13.738  0.00  0.00    -0.263 OA
ATOM     25  H   UNL     1     -16.228   3.697 -13.057  0.00  0.00    +0.244 HD
ENDBRANCH  14  24
ENDBRANCH   1  14
TORSDOF 6
ENDMDL
MODEL 8
REMARK VINA RESULT:      -6.9      3.153      6.867
REMARK  Name = min_compound988.pdb
REMARK  7 active torsions:
REMARK  status: ('A' for Active; 'I' for Inactive)
REMARK    1  A    between atoms: _2  and  _21
REMARK    2  A    between atoms: _8  and  _14
REMARK    3  A    between atoms: _10  and  _12
REMARK    4  A    between atoms: _13  and  _14
REMARK    5  A    between atoms: _13  and  _17
REMARK    6  A    between atoms: _14  and  _15
REMARK    7  A    between atoms: _14  and  _16
REMARK                            x       y       z     vdW  Elec       q    Type
REMARK                         _______ _______ _______ _____ _____    ______ ____
ROOT
ATOM      1  O   UNL     1     -13.983   3.715 -16.161  0.00  0.00    -0.342 OA
ENDROOT
BRANCH   1   3
ATOM      2  N   UNL     1     -14.594   5.871 -16.496  0.00  0.00    -0.216 NA
ATOM      3  C   UNL     1     -14.607   4.821 -15.647  0.00  0.00    +0.248 A 
ATOM      4  C   UNL     1     -15.155   4.893 -14.355  0.00  0.00    +0.092 A 
ATOM      5  C   UNL     1     -15.744   6.076 -13.903  0.00  0.00    +0.035 A 
ATOM      6  C   UNL     1     -15.658   7.168 -14.743  0.00  0.00    -0.005 A 
ATOM      7  C   UNL     1     -16.008   8.598 -14.485  0.00  0.00    +0.039 C 
ATOM      8  C   UNL     1     -16.007   9.175 -15.907  0.00  0.00    +0.011 C 
ATOM      9  C   UNL     1     -15.008   8.338 -16.716  0.00  0.00    +0.056 C 
ATOM     10  C   UNL     1     -15.096   7.017 -16.006  0.00  0.00    +0.050 A 
BRANCH   5  11
ATOM     11  N   UNL     1     -16.154   6.201 -12.575  0.00  0.00    -0.358 N 
ATOM     12  H   UNL     1     -16.494   5.346 -12.145  0.00  0.00    +0.142 HD
ATOM     13  H   UNL     1     -16.766   6.990 -12.392  0.00  0.00    +0.142 HD
ENDBRANCH   5  11
ENDBRANCH   1   3
BRANCH   1  14
ATOM     14  S   UNL     1     -13.386   3.702 -17.537  0.00  0.00    -0.013 S 
BRANCH  14  15
ATOM     15  C   UNL     1     -12.220   2.225 -16.992  0.00  0.00    +0.098 A 
ATOM     16  C   UNL     1     -12.268   0.997 -17.672  0.00  0.00    +0.028 A 
ATOM     17  C   UNL     1     -11.417  -0.041 -17.283  0.00  0.00    +0.005 A 
ATOM     18  C   UNL     1     -10.524   0.126 -16.217  0.00  0.00    -0.050 A 
ATOM     19  C   UNL     1      -9.573  -0.973 -15.847  0.00  0.00    +0.044 C 
ATOM     20  C   UNL     1     -10.476   1.358 -15.552  0.00  0.00    +0.005 A 
ATOM     21  C   UNL     1     -11.324   2.404 -15.928  0.00  0.00    +0.028 A 
ENDBRANCH  14  15
BRANCH  14  22
ATOM     22  O   UNL     1     -14.619   2.986 -17.967  0.00  0.00    -0.263 OA
ATOM     23  H   UNL     1     -14.984   2.492 -17.217  0.00  0.00    +0.244 HD
ENDBRANCH  14  22
BRANCH  14  24
ATOM     24  O   UNL     1     -12.789   3.689 -18.913  0.00  0.00    -0.263 OA
ATOM     25  H   UNL     1     -13.497   3.743 -19.573  0.00  0.00    +0.244 HD
ENDBRANCH  14  24
ENDBRANCH   1  14
TORSDOF 6
ENDMDL
MODEL 9
REMARK VINA RESULT:      -6.8      2.355      6.460
REMARK  Name = min_compound988.pdb
REMARK  7 active torsions:
REMARK  status: ('A' for Active; 'I' for Inactive)
REMARK    1  A    between atoms: _2  and  _21
REMARK    2  A    between atoms: _8  and  _14
REMARK    3  A    between atoms: _10  and  _12
REMARK    4  A    between atoms: _13  and  _14
REMARK    5  A    between atoms: _13  and  _17
REMARK    6  A    between atoms: _14  and  _15
REMARK    7  A    between atoms: _14  and  _16
REMARK                            x       y       z     vdW  Elec       q    Type
REMARK                         _______ _______ _______ _____ _____    ______ ____
ROOT
ATOM      1  O   UNL     1     -14.078   3.678 -16.969  0.00  0.00    -0.342 OA
ENDROOT
BRANCH   1   3
ATOM      2  N   UNL     1     -15.322   3.154 -15.149  0.00  0.00    -0.216 NA
ATOM      3  C   UNL     1     -14.749   4.143 -15.869  0.00  0.00    +0.248 A 
ATOM      4  C   UNL     1     -14.889   5.502 -15.542  0.00  0.00    +0.092 A 
ATOM      5  C   UNL     1     -15.623   5.885 -14.416  0.00  0.00    +0.035 A 
ATOM      6  C   UNL     1     -16.270   4.879 -13.730  0.00  0.00    -0.005 A 
ATOM      7  C   UNL     1     -17.270   4.971 -12.622  0.00  0.00    +0.039 C 
ATOM      8  C   UNL     1     -17.296   3.524 -12.111  0.00  0.00    +0.011 C 
ATOM      9  C   UNL     1     -16.952   2.632 -13.311  0.00  0.00    +0.056 C 
ATOM     10  C   UNL     1     -16.085   3.556 -14.119  0.00  0.00    +0.050 A 
BRANCH   5  11
ATOM     11  N   UNL     1     -15.891   7.232 -14.170  0.00  0.00    -0.358 N 
ATOM     12  H   UNL     1     -15.851   7.837 -14.986  0.00  0.00    +0.142 HD
ATOM     13  H   UNL     1     -15.394   7.627 -13.378  0.00  0.00    +0.142 HD
ENDBRANCH   5  11
ENDBRANCH   1   3
BRANCH   1  14
ATOM     14  S   UNL     1     -12.776   4.272 -17.419  0.00  0.00    -0.013 S 
BRANCH  14  15
ATOM     15  C   UNL     1     -11.873   2.603 -16.933  0.00  0.00    +0.098 A 
ATOM     16  C   UNL     1     -12.095   1.434 -17.679  0.00  0.00    +0.028 A 
ATOM     17  C   UNL     1     -11.429   0.256 -17.331  0.00  0.00    +0.005 A 
ATOM     18  C   UNL     1     -10.551   0.225 -16.241  0.00  0.00    -0.050 A 
ATOM     19  C   UNL     1      -9.795  -1.029 -15.912  0.00  0.00    +0.044 C 
ATOM     20  C   UNL     1     -10.328   1.398 -15.509  0.00  0.00    +0.005 A 
ATOM     21  C   UNL     1     -10.989   2.584 -15.844  0.00  0.00    +0.028 A 
ENDBRANCH  14  15
BRANCH  14  22
ATOM     22  O   UNL     1     -13.231   3.989 -18.809  0.00  0.00    -0.263 OA
ATOM     23  H   UNL     1     -13.857   3.249 -18.799  0.00  0.00    +0.244 HD
ENDBRANCH  14  22
BRANCH  14  24
ATOM     24  O   UNL     1     -11.474   4.865 -17.870  0.00  0.00    -0.263 OA
ATOM     25  H   UNL     1     -11.484   5.823 -17.716  0.00  0.00    +0.244 HD
ENDBRANCH  14  24
ENDBRANCH   1  14
TORSDOF 6
ENDMDL
