MODEL 1
REMARK VINA RESULT:      -5.2      0.000      0.000
REMARK  Name = min_compound98.pdb
REMARK  3 active torsions:
REMARK  status: ('A' for Active; 'I' for Inactive)
REMARK    1  A    between atoms: _4  and  _10
REMARK    2  A    between atoms: _8  and  _11
REMARK    3  A    between atoms: _13  and  _14
REMARK                            x       y       z     vdW  Elec       q    Type
REMARK                         _______ _______ _______ _____ _____    ______ ____
ROOT
ATOM      1  O   UNL     1     -11.908  -1.021 -16.632  0.00  0.00    -0.245 OA
ATOM      2  C   UNL     1     -11.724   0.195 -16.657  0.00  0.00    +0.345 A 
ATOM      3  N   UNL     1     -10.503   0.803 -16.930  0.00  0.00    -0.217 N 
ATOM      4  C   UNL     1      -9.317  -0.056 -17.257  0.00  0.00    +0.178 C 
ATOM      5  N   UNL     1     -10.329   2.168 -17.053  0.00  0.00    -0.157 NA
ATOM      6  C   UNL     1     -11.332   2.962 -16.796  0.00  0.00    +0.210 A 
ATOM      7  C   UNL     1     -12.670   2.392 -16.387  0.00  0.00    +0.285 A 
ATOM      8  O   UNL     1     -13.594   3.131 -16.073  0.00  0.00    -0.265 OA
ATOM      9  N   UNL     1     -12.764   1.035 -16.399  0.00  0.00    -0.272 N 
ATOM     10  H   UNL     1     -13.643   0.608 -16.155  0.00  0.00    +0.174 HD
ENDROOT
BRANCH   6  11
ATOM     11  C   UNL     1     -11.085   4.470 -16.931  0.00  0.00    +0.269 C 
ATOM     12  N   UNL     1     -11.925   5.151 -17.790  0.00  0.00    -0.313 N 
ATOM     13  H   UNL     1     -12.724   4.659 -18.190  0.00  0.00    +0.149 HD
ATOM     14  C   UNL     1     -11.863   6.583 -17.929  0.00  0.00    +0.128 C 
ATOM     15  O   UNL     1     -10.189   5.006 -16.291  0.00  0.00    -0.268 OA
ENDBRANCH   6  11
TORSDOF 1
ENDMDL
MODEL 2
REMARK VINA RESULT:      -5.2      1.516      2.486
REMARK  Name = min_compound98.pdb
REMARK  3 active torsions:
REMARK  status: ('A' for Active; 'I' for Inactive)
REMARK    1  A    between atoms: _4  and  _10
REMARK    2  A    between atoms: _8  and  _11
REMARK    3  A    between atoms: _13  and  _14
REMARK                            x       y       z     vdW  Elec       q    Type
REMARK                         _______ _______ _______ _____ _____    ______ ____
ROOT
ATOM      1  O   UNL     1      -9.963   0.351 -15.249  0.00  0.00    -0.245 OA
ATOM      2  C   UNL     1     -10.525   1.349 -15.696  0.00  0.00    +0.345 A 
ATOM      3  N   UNL     1     -11.722   1.328 -16.404  0.00  0.00    -0.217 N 
ATOM      4  C   UNL     1     -12.420   0.019 -16.620  0.00  0.00    +0.178 C 
ATOM      5  N   UNL     1     -12.396   2.462 -16.817  0.00  0.00    -0.157 NA
ATOM      6  C   UNL     1     -11.843   3.630 -16.639  0.00  0.00    +0.210 A 
ATOM      7  C   UNL     1     -10.491   3.740 -15.975  0.00  0.00    +0.285 A 
ATOM      8  O   UNL     1      -9.931   4.824 -15.870  0.00  0.00    -0.265 OA
ATOM      9  N   UNL     1      -9.962   2.575 -15.511  0.00  0.00    -0.272 N 
ATOM     10  H   UNL     1      -9.072   2.600 -15.040  0.00  0.00    +0.174 HD
ENDROOT
BRANCH   6  11
ATOM     11  C   UNL     1     -12.622   4.858 -17.129  0.00  0.00    +0.269 C 
ATOM     12  N   UNL     1     -11.868   5.893 -17.644  0.00  0.00    -0.313 N 
ATOM     13  H   UNL     1     -10.867   5.752 -17.784  0.00  0.00    +0.149 HD
ATOM     14  C   UNL     1     -12.483   7.057 -18.227  0.00  0.00    +0.128 C 
ATOM     15  O   UNL     1     -13.844   4.878 -17.058  0.00  0.00    -0.268 OA
ENDBRANCH   6  11
TORSDOF 1
ENDMDL
MODEL 3
REMARK VINA RESULT:      -5.1      1.919      2.344
REMARK  Name = min_compound98.pdb
REMARK  3 active torsions:
REMARK  status: ('A' for Active; 'I' for Inactive)
REMARK    1  A    between atoms: _4  and  _10
REMARK    2  A    between atoms: _8  and  _11
REMARK    3  A    between atoms: _13  and  _14
REMARK                            x       y       z     vdW  Elec       q    Type
REMARK                         _______ _______ _______ _____ _____    ______ ____
ROOT
ATOM      1  O   UNL     1      -9.679   0.204 -15.012  0.00  0.00    -0.245 OA
ATOM      2  C   UNL     1     -10.356   0.860 -15.800  0.00  0.00    +0.345 A 
ATOM      3  N   UNL     1     -10.579   0.513 -17.128  0.00  0.00    -0.217 N 
ATOM      4  C   UNL     1      -9.998  -0.765 -17.656  0.00  0.00    +0.178 C 
ATOM      5  N   UNL     1     -11.422   1.205 -17.978  0.00  0.00    -0.157 NA
ATOM      6  C   UNL     1     -11.968   2.315 -17.566  0.00  0.00    +0.210 A 
ATOM      7  C   UNL     1     -11.695   2.827 -16.171  0.00  0.00    +0.285 A 
ATOM      8  O   UNL     1     -12.144   3.904 -15.800  0.00  0.00    -0.265 OA
ATOM      9  N   UNL     1     -10.939   2.017 -15.381  0.00  0.00    -0.272 N 
ATOM     10  H   UNL     1     -10.748   2.305 -14.434  0.00  0.00    +0.174 HD
ENDROOT
BRANCH   6  11
ATOM     11  C   UNL     1     -12.883   3.055 -18.550  0.00  0.00    +0.269 C 
ATOM     12  N   UNL     1     -12.698   4.420 -18.647  0.00  0.00    -0.313 N 
ATOM     13  H   UNL     1     -11.904   4.844 -18.166  0.00  0.00    +0.149 HD
ATOM     14  C   UNL     1     -13.422   5.214 -19.605  0.00  0.00    +0.128 C 
ATOM     15  O   UNL     1     -13.714   2.436 -19.202  0.00  0.00    -0.268 OA
ENDBRANCH   6  11
TORSDOF 1
ENDMDL
MODEL 4
REMARK VINA RESULT:      -4.8      2.094      4.822
REMARK  Name = min_compound98.pdb
REMARK  3 active torsions:
REMARK  status: ('A' for Active; 'I' for Inactive)
REMARK    1  A    between atoms: _4  and  _10
REMARK    2  A    between atoms: _8  and  _11
REMARK    3  A    between atoms: _13  and  _14
REMARK                            x       y       z     vdW  Elec       q    Type
REMARK                         _______ _______ _______ _____ _____    ______ ____
ROOT
ATOM      1  O   UNL     1     -12.847   5.309 -18.968  0.00  0.00    -0.245 OA
ATOM      2  C   UNL     1     -12.564   4.224 -18.463  0.00  0.00    +0.345 A 
ATOM      3  N   UNL     1     -13.091   3.003 -18.869  0.00  0.00    -0.217 N 
ATOM      4  C   UNL     1     -14.044   2.969 -20.027  0.00  0.00    +0.178 C 
ATOM      5  N   UNL     1     -12.694   1.782 -18.361  0.00  0.00    -0.157 NA
ATOM      6  C   UNL     1     -11.854   1.751 -17.364  0.00  0.00    +0.210 A 
ATOM      7  C   UNL     1     -11.311   3.037 -16.785  0.00  0.00    +0.285 A 
ATOM      8  O   UNL     1     -10.580   3.022 -15.803  0.00  0.00    -0.265 OA
ATOM      9  N   UNL     1     -11.683   4.178 -17.426  0.00  0.00    -0.272 N 
ATOM     10  H   UNL     1     -11.329   5.060 -17.091  0.00  0.00    +0.174 HD
ENDROOT
BRANCH   6  11
ATOM     11  C   UNL     1     -11.455   0.372 -16.823  0.00  0.00    +0.269 C 
ATOM     12  N   UNL     1     -10.130   0.217 -16.466  0.00  0.00    -0.313 N 
ATOM     13  H   UNL     1      -9.522   1.035 -16.462  0.00  0.00    +0.149 HD
ATOM     14  C   UNL     1      -9.651  -0.995 -15.853  0.00  0.00    +0.128 C 
ATOM     15  O   UNL     1     -12.293  -0.514 -16.721  0.00  0.00    -0.268 OA
ENDBRANCH   6  11
TORSDOF 1
ENDMDL
MODEL 5
REMARK VINA RESULT:      -4.8     10.390     11.385
REMARK  Name = min_compound98.pdb
REMARK  3 active torsions:
REMARK  status: ('A' for Active; 'I' for Inactive)
REMARK    1  A    between atoms: _4  and  _10
REMARK    2  A    between atoms: _8  and  _11
REMARK    3  A    between atoms: _13  and  _14
REMARK                            x       y       z     vdW  Elec       q    Type
REMARK                         _______ _______ _______ _____ _____    ______ ____
ROOT
ATOM      1  O   UNL     1     -14.452  -1.799  -4.546  0.00  0.00    -0.245 OA
ATOM      2  C   UNL     1     -14.938  -1.003  -5.347  0.00  0.00    +0.345 A 
ATOM      3  N   UNL     1     -14.928   0.379  -5.191  0.00  0.00    -0.217 N 
ATOM      4  C   UNL     1     -14.251   0.973  -3.991  0.00  0.00    +0.178 C 
ATOM      5  N   UNL     1     -15.389   1.268  -6.142  0.00  0.00    -0.157 NA
ATOM      6  C   UNL     1     -15.972   0.807  -7.214  0.00  0.00    +0.210 A 
ATOM      7  C   UNL     1     -16.124  -0.682  -7.418  0.00  0.00    +0.285 A 
ATOM      8  O   UNL     1     -16.735  -1.123  -8.383  0.00  0.00    -0.265 OA
ATOM      9  N   UNL     1     -15.543  -1.471  -6.474  0.00  0.00    -0.272 N 
ATOM     10  H   UNL     1     -15.598  -2.472  -6.577  0.00  0.00    +0.174 HD
ENDROOT
BRANCH   6  11
ATOM     11  C   UNL     1     -16.481   1.834  -8.234  0.00  0.00    +0.269 C 
ATOM     12  N   UNL     1     -17.838   1.819  -8.488  0.00  0.00    -0.313 N 
ATOM     13  H   UNL     1     -18.440   1.228  -7.915  0.00  0.00    +0.149 HD
ATOM     14  C   UNL     1     -18.455   2.796  -9.348  0.00  0.00    +0.128 C 
ATOM     15  O   UNL     1     -15.700   2.611  -8.766  0.00  0.00    -0.268 OA
ENDBRANCH   6  11
TORSDOF 1
ENDMDL
MODEL 6
REMARK VINA RESULT:      -4.8      1.824      2.107
REMARK  Name = min_compound98.pdb
REMARK  3 active torsions:
REMARK  status: ('A' for Active; 'I' for Inactive)
REMARK    1  A    between atoms: _4  and  _10
REMARK    2  A    between atoms: _8  and  _11
REMARK    3  A    between atoms: _13  and  _14
REMARK                            x       y       z     vdW  Elec       q    Type
REMARK                         _______ _______ _______ _____ _____    ______ ____
ROOT
ATOM      1  O   UNL     1     -10.617  -0.584 -17.922  0.00  0.00    -0.245 OA
ATOM      2  C   UNL     1     -11.230   0.436 -17.614  0.00  0.00    +0.345 A 
ATOM      3  N   UNL     1     -11.126   1.078 -16.384  0.00  0.00    -0.217 N 
ATOM      4  C   UNL     1     -10.181   0.534 -15.355  0.00  0.00    +0.178 C 
ATOM      5  N   UNL     1     -11.743   2.277 -16.083  0.00  0.00    -0.157 NA
ATOM      6  C   UNL     1     -12.564   2.805 -16.949  0.00  0.00    +0.210 A 
ATOM      7  C   UNL     1     -12.821   2.120 -18.271  0.00  0.00    +0.285 A 
ATOM      8  O   UNL     1     -13.645   2.567 -19.058  0.00  0.00    -0.265 OA
ATOM      9  N   UNL     1     -12.084   1.001 -18.511  0.00  0.00    -0.272 N 
ATOM     10  H   UNL     1     -12.204   0.521 -19.389  0.00  0.00    +0.174 HD
ENDROOT
BRANCH   6  11
ATOM     11  C   UNL     1     -13.237   4.128 -16.563  0.00  0.00    +0.269 C 
ATOM     12  N   UNL     1     -13.051   5.184 -17.433  0.00  0.00    -0.313 N 
ATOM     13  H   UNL     1     -12.591   5.010 -18.327  0.00  0.00    +0.149 HD
ATOM     14  C   UNL     1     -13.710   6.449 -17.237  0.00  0.00    +0.128 C 
ATOM     15  O   UNL     1     -13.901   4.204 -15.537  0.00  0.00    -0.268 OA
ENDBRANCH   6  11
TORSDOF 1
ENDMDL
MODEL 7
REMARK VINA RESULT:      -4.7      1.775      4.956
REMARK  Name = min_compound98.pdb
REMARK  3 active torsions:
REMARK  status: ('A' for Active; 'I' for Inactive)
REMARK    1  A    between atoms: _4  and  _10
REMARK    2  A    between atoms: _8  and  _11
REMARK    3  A    between atoms: _13  and  _14
REMARK                            x       y       z     vdW  Elec       q    Type
REMARK                         _______ _______ _______ _____ _____    ______ ____
ROOT
ATOM      1  O   UNL     1     -14.457   5.417 -16.324  0.00  0.00    -0.245 OA
ATOM      2  C   UNL     1     -13.827   4.362 -16.338  0.00  0.00    +0.345 A 
ATOM      3  N   UNL     1     -14.386   3.106 -16.126  0.00  0.00    -0.217 N 
ATOM      4  C   UNL     1     -15.865   2.994 -15.901  0.00  0.00    +0.178 C 
ATOM      5  N   UNL     1     -13.688   1.919 -16.241  0.00  0.00    -0.157 NA
ATOM      6  C   UNL     1     -12.402   1.956 -16.454  0.00  0.00    +0.210 A 
ATOM      7  C   UNL     1     -11.690   3.282 -16.589  0.00  0.00    +0.285 A 
ATOM      8  O   UNL     1     -10.473   3.328 -16.715  0.00  0.00    -0.265 OA
ATOM      9  N   UNL     1     -12.485   4.386 -16.566  0.00  0.00    -0.272 N 
ATOM     10  H   UNL     1     -12.059   5.292 -16.675  0.00  0.00    +0.174 HD
ENDROOT
BRANCH   6  11
ATOM     11  C   UNL     1     -11.668   0.613 -16.558  0.00  0.00    +0.269 C 
ATOM     12  N   UNL     1     -10.415   0.556 -15.981  0.00  0.00    -0.313 N 
ATOM     13  H   UNL     1     -10.094   1.347 -15.423  0.00  0.00    +0.149 HD
ATOM     14  C   UNL     1      -9.666  -0.673 -15.923  0.00  0.00    +0.128 C 
ATOM     15  O   UNL     1     -12.199  -0.335 -17.121  0.00  0.00    -0.268 OA
ENDBRANCH   6  11
TORSDOF 1
ENDMDL
MODEL 8
REMARK VINA RESULT:      -4.4     12.921     13.828
REMARK  Name = min_compound98.pdb
REMARK  3 active torsions:
REMARK  status: ('A' for Active; 'I' for Inactive)
REMARK    1  A    between atoms: _4  and  _10
REMARK    2  A    between atoms: _8  and  _11
REMARK    3  A    between atoms: _13  and  _14
REMARK                            x       y       z     vdW  Elec       q    Type
REMARK                         _______ _______ _______ _____ _____    ______ ____
ROOT
ATOM      1  O   UNL     1     -14.451  -3.598  -2.867  0.00  0.00    -0.245 OA
ATOM      2  C   UNL     1     -14.779  -2.489  -3.284  0.00  0.00    +0.345 A 
ATOM      3  N   UNL     1     -15.464  -1.537  -2.536  0.00  0.00    -0.217 N 
ATOM      4  C   UNL     1     -15.807  -1.839  -1.107  0.00  0.00    +0.178 C 
ATOM      5  N   UNL     1     -15.742  -0.258  -2.980  0.00  0.00    -0.157 NA
ATOM      6  C   UNL     1     -15.450   0.065  -4.209  0.00  0.00    +0.210 A 
ATOM      7  C   UNL     1     -14.801  -0.943  -5.129  0.00  0.00    +0.285 A 
ATOM      8  O   UNL     1     -14.591  -0.673  -6.305  0.00  0.00    -0.265 OA
ATOM      9  N   UNL     1     -14.474  -2.136  -4.563  0.00  0.00    -0.272 N 
ATOM     10  H   UNL     1     -14.019  -2.833  -5.130  0.00  0.00    +0.174 HD
ENDROOT
BRANCH   6  11
ATOM     11  C   UNL     1     -15.792   1.491  -4.661  0.00  0.00    +0.269 C 
ATOM     12  N   UNL     1     -16.595   1.601  -5.779  0.00  0.00    -0.313 N 
ATOM     13  H   UNL     1     -17.013   0.756  -6.170  0.00  0.00    +0.149 HD
ATOM     14  C   UNL     1     -17.069   2.878  -6.245  0.00  0.00    +0.128 C 
ATOM     15  O   UNL     1     -15.365   2.453  -4.035  0.00  0.00    -0.268 OA
ENDBRANCH   6  11
TORSDOF 1
ENDMDL
MODEL 9
REMARK VINA RESULT:      -4.4      2.645      4.916
REMARK  Name = min_compound98.pdb
REMARK  3 active torsions:
REMARK  status: ('A' for Active; 'I' for Inactive)
REMARK    1  A    between atoms: _4  and  _10
REMARK    2  A    between atoms: _8  and  _11
REMARK    3  A    between atoms: _13  and  _14
REMARK                            x       y       z     vdW  Elec       q    Type
REMARK                         _______ _______ _______ _____ _____    ______ ____
ROOT
ATOM      1  O   UNL     1     -15.856   4.327 -17.636  0.00  0.00    -0.245 OA
ATOM      2  C   UNL     1     -14.957   3.495 -17.532  0.00  0.00    +0.345 A 
ATOM      3  N   UNL     1     -14.517   2.957 -16.328  0.00  0.00    -0.217 N 
ATOM      4  C   UNL     1     -15.190   3.371 -15.053  0.00  0.00    +0.178 C 
ATOM      5  N   UNL     1     -13.574   1.951 -16.229  0.00  0.00    -0.157 NA
ATOM      6  C   UNL     1     -12.968   1.540 -17.308  0.00  0.00    +0.210 A 
ATOM      7  C   UNL     1     -13.306   2.146 -18.650  0.00  0.00    +0.285 A 
ATOM      8  O   UNL     1     -12.692   1.820 -19.657  0.00  0.00    -0.265 OA
ATOM      9  N   UNL     1     -14.321   3.052 -18.651  0.00  0.00    -0.272 N 
ATOM     10  H   UNL     1     -14.599   3.468 -19.526  0.00  0.00    +0.174 HD
ENDROOT
BRANCH   6  11
ATOM     11  C   UNL     1     -11.918   0.432 -17.146  0.00  0.00    +0.269 C 
ATOM     12  N   UNL     1     -10.648   0.726 -17.599  0.00  0.00    -0.313 N 
ATOM     13  H   UNL     1     -10.440   1.678 -17.900  0.00  0.00    +0.149 HD
ATOM     14  C   UNL     1      -9.551  -0.189 -17.414  0.00  0.00    +0.128 C 
ATOM     15  O   UNL     1     -12.226  -0.635 -16.632  0.00  0.00    -0.268 OA
ENDBRANCH   6  11
TORSDOF 1
ENDMDL
