MODEL 1
REMARK VINA RESULT:      -3.6      0.000      0.000
REMARK  Name = min_compound6.pdb
REMARK  1 active torsions:
REMARK  status: ('A' for Active; 'I' for Inactive)
REMARK    1  A    between atoms: _1  and  _8
REMARK                            x       y       z     vdW  Elec       q    Type
REMARK                         _______ _______ _______ _____ _____    ______ ____
ROOT
ATOM      1  C   UNL     1     -10.203   0.053 -15.995  0.00  0.00    +0.208 C 
ATOM      2  S   UNL     1     -11.761  -0.278 -16.665  0.00  0.00    -0.048 S 
ATOM      3  S   UNL     1     -12.368   1.676 -16.675  0.00  0.00    -0.031 S 
ATOM      4  C   UNL     1     -10.890   2.329 -15.998  0.00  0.00    +0.119 C 
ATOM      5  S   UNL     1     -10.608   3.936 -15.690  0.00  0.00    -0.027 S 
ATOM      6  N   UNL     1      -9.960   1.360 -15.739  0.00  0.00    -0.308 N 
ATOM      7  H   UNL     1      -9.063   1.607 -15.347  0.00  0.00    +0.149 HD
ENDROOT
BRANCH   1   8
ATOM      8  N   UNL     1      -9.321  -0.842 -15.746  0.00  0.00    -0.304 NA
ATOM      9  H   UNL     1      -9.505  -1.675 -16.306  0.00  0.00    +0.121 HD
ATOM     10  H   UNL     1      -8.401  -0.455 -15.989  0.00  0.00    +0.121 HD
ENDBRANCH   1   8
TORSDOF 1
ENDMDL
MODEL 2
REMARK VINA RESULT:      -3.6      1.584      3.234
REMARK  Name = min_compound6.pdb
REMARK  1 active torsions:
REMARK  status: ('A' for Active; 'I' for Inactive)
REMARK    1  A    between atoms: _1  and  _8
REMARK                            x       y       z     vdW  Elec       q    Type
REMARK                         _______ _______ _______ _____ _____    ______ ____
ROOT
ATOM      1  C   UNL     1     -10.631   2.938 -15.958  0.00  0.00    +0.208 C 
ATOM      2  S   UNL     1     -11.716   2.934 -17.303  0.00  0.00    -0.048 S 
ATOM      3  S   UNL     1     -11.605   0.915 -17.614  0.00  0.00    -0.031 S 
ATOM      4  C   UNL     1     -10.488   0.590 -16.303  0.00  0.00    +0.119 C 
ATOM      5  S   UNL     1      -9.896  -0.908 -15.901  0.00  0.00    -0.027 S 
ATOM      6  N   UNL     1     -10.140   1.722 -15.620  0.00  0.00    -0.308 N 
ATOM      7  H   UNL     1      -9.501   1.670 -14.840  0.00  0.00    +0.149 HD
ENDROOT
BRANCH   1   8
ATOM      8  N   UNL     1     -10.294   3.989 -15.308  0.00  0.00    -0.304 NA
ATOM      9  H   UNL     1      -9.716   3.731 -14.508  0.00  0.00    +0.121 HD
ATOM     10  H   UNL     1      -9.760   4.596 -15.943  0.00  0.00    +0.121 HD
ENDBRANCH   1   8
TORSDOF 1
ENDMDL
MODEL 3
REMARK VINA RESULT:      -3.5      2.645      3.657
REMARK  Name = min_compound6.pdb
REMARK  1 active torsions:
REMARK  status: ('A' for Active; 'I' for Inactive)
REMARK    1  A    between atoms: _1  and  _8
REMARK                            x       y       z     vdW  Elec       q    Type
REMARK                         _______ _______ _______ _____ _____    ______ ____
ROOT
ATOM      1  C   UNL     1     -12.305   1.590 -18.419  0.00  0.00    +0.208 C 
ATOM      2  S   UNL     1     -12.374   2.912 -17.308  0.00  0.00    -0.048 S 
ATOM      3  S   UNL     1     -11.176   2.027 -15.905  0.00  0.00    -0.031 S 
ATOM      4  C   UNL     1     -10.912   0.544 -16.801  0.00  0.00    +0.119 C 
ATOM      5  S   UNL     1      -9.990  -0.736 -16.281  0.00  0.00    -0.027 S 
ATOM      6  N   UNL     1     -11.557   0.540 -18.007  0.00  0.00    -0.308 N 
ATOM      7  H   UNL     1     -11.484  -0.259 -18.620  0.00  0.00    +0.149 HD
ENDROOT
BRANCH   1   8
ATOM      8  N   UNL     1     -12.903   1.570 -19.551  0.00  0.00    -0.304 NA
ATOM      9  H   UNL     1     -13.524   0.762 -19.601  0.00  0.00    +0.121 HD
ATOM     10  H   UNL     1     -13.449   2.436 -19.636  0.00  0.00    +0.121 HD
ENDBRANCH   1   8
TORSDOF 1
ENDMDL
MODEL 4
REMARK VINA RESULT:      -3.5     12.885     13.043
REMARK  Name = min_compound6.pdb
REMARK  1 active torsions:
REMARK  status: ('A' for Active; 'I' for Inactive)
REMARK    1  A    between atoms: _1  and  _8
REMARK                            x       y       z     vdW  Elec       q    Type
REMARK                         _______ _______ _______ _____ _____    ______ ____
ROOT
ATOM      1  C   UNL     1     -14.651  -1.249  -5.381  0.00  0.00    +0.208 C 
ATOM      2  S   UNL     1     -14.045   0.364  -5.247  0.00  0.00    -0.048 S 
ATOM      3  S   UNL     1     -14.018   0.373  -3.201  0.00  0.00    -0.031 S 
ATOM      4  C   UNL     1     -14.627  -1.259  -3.005  0.00  0.00    +0.119 C 
ATOM      5  S   UNL     1     -14.892  -2.011  -1.548  0.00  0.00    -0.027 S 
ATOM      6  N   UNL     1     -14.871  -1.874  -4.201  0.00  0.00    -0.308 N 
ATOM      7  H   UNL     1     -15.225  -2.819  -4.225  0.00  0.00    +0.149 HD
ENDROOT
BRANCH   1   8
ATOM      8  N   UNL     1     -14.884  -1.839  -6.494  0.00  0.00    -0.304 NA
ATOM      9  H   UNL     1     -15.003  -1.148  -7.235  0.00  0.00    +0.121 HD
ATOM     10  H   UNL     1     -14.081  -2.444  -6.706  0.00  0.00    +0.121 HD
ENDBRANCH   1   8
TORSDOF 1
ENDMDL
MODEL 5
REMARK VINA RESULT:      -3.4     10.776     10.931
REMARK  Name = min_compound6.pdb
REMARK  1 active torsions:
REMARK  status: ('A' for Active; 'I' for Inactive)
REMARK    1  A    between atoms: _1  and  _8
REMARK                            x       y       z     vdW  Elec       q    Type
REMARK                         _______ _______ _______ _____ _____    ______ ____
ROOT
ATOM      1  C   UNL     1     -15.164  -0.921  -6.516  0.00  0.00    +0.208 C 
ATOM      2  S   UNL     1     -14.415   0.598  -6.860  0.00  0.00    -0.048 S 
ATOM      3  S   UNL     1     -16.132   1.496  -7.517  0.00  0.00    -0.031 S 
ATOM      4  C   UNL     1     -17.169   0.104  -7.276  0.00  0.00    +0.119 C 
ATOM      5  S   UNL     1     -18.797   0.056  -7.602  0.00  0.00    -0.027 S 
ATOM      6  N   UNL     1     -16.491  -0.973  -6.777  0.00  0.00    -0.308 N 
ATOM      7  H   UNL     1     -16.976  -1.839  -6.593  0.00  0.00    +0.149 HD
ENDROOT
BRANCH   1   8
ATOM      8  N   UNL     1     -14.543  -1.940  -6.049  0.00  0.00    -0.304 NA
ATOM      9  H   UNL     1     -14.040  -2.413  -6.800  0.00  0.00    +0.121 HD
ATOM     10  H   UNL     1     -13.878  -1.607  -5.340  0.00  0.00    +0.121 HD
ENDBRANCH   1   8
TORSDOF 1
ENDMDL
MODEL 6
REMARK VINA RESULT:      -3.3     12.049     12.055
REMARK  Name = min_compound6.pdb
REMARK  1 active torsions:
REMARK  status: ('A' for Active; 'I' for Inactive)
REMARK    1  A    between atoms: _1  and  _8
REMARK                            x       y       z     vdW  Elec       q    Type
REMARK                         _______ _______ _______ _____ _____    ______ ____
ROOT
ATOM      1  C   UNL     1     -14.621  -1.257  -4.553  0.00  0.00    +0.208 C 
ATOM      2  S   UNL     1     -14.840  -1.023  -6.251  0.00  0.00    -0.048 S 
ATOM      3  S   UNL     1     -14.367   0.967  -6.218  0.00  0.00    -0.031 S 
ATOM      4  C   UNL     1     -14.068   1.054  -4.493  0.00  0.00    +0.119 C 
ATOM      5  S   UNL     1     -13.614   2.422  -3.669  0.00  0.00    -0.027 S 
ATOM      6  N   UNL     1     -14.251  -0.149  -3.869  0.00  0.00    -0.308 N 
ATOM      7  H   UNL     1     -14.110  -0.232  -2.873  0.00  0.00    +0.149 HD
ENDROOT
BRANCH   1   8
ATOM      8  N   UNL     1     -14.788  -2.377  -3.953  0.00  0.00    -0.304 NA
ATOM      9  H   UNL     1     -14.627  -2.261  -2.952  0.00  0.00    +0.121 HD
ATOM     10  H   UNL     1     -15.755  -2.683  -4.119  0.00  0.00    +0.121 HD
ENDBRANCH   1   8
TORSDOF 1
ENDMDL
MODEL 7
REMARK VINA RESULT:      -3.3     11.279     11.411
REMARK  Name = min_compound6.pdb
REMARK  1 active torsions:
REMARK  status: ('A' for Active; 'I' for Inactive)
REMARK    1  A    between atoms: _1  and  _8
REMARK                            x       y       z     vdW  Elec       q    Type
REMARK                         _______ _______ _______ _____ _____    ______ ____
ROOT
ATOM      1  C   UNL     1     -14.700  -1.304  -4.999  0.00  0.00    +0.208 C 
ATOM      2  S   UNL     1     -13.729   0.123  -5.086  0.00  0.00    -0.048 S 
ATOM      3  S   UNL     1     -14.581   0.811  -6.814  0.00  0.00    -0.031 S 
ATOM      4  C   UNL     1     -15.703  -0.521  -7.007  0.00  0.00    +0.119 C 
ATOM      5  S   UNL     1     -16.793  -0.681  -8.250  0.00  0.00    -0.027 S 
ATOM      6  N   UNL     1     -15.593  -1.446  -6.006  0.00  0.00    -0.308 N 
ATOM      7  H   UNL     1     -16.185  -2.264  -6.002  0.00  0.00    +0.149 HD
ENDROOT
BRANCH   1   8
ATOM      8  N   UNL     1     -14.610  -2.180  -4.069  0.00  0.00    -0.304 NA
ATOM      9  H   UNL     1     -14.445  -1.719  -3.173  0.00  0.00    +0.121 HD
ATOM     10  H   UNL     1     -15.496  -2.699  -4.036  0.00  0.00    +0.121 HD
ENDBRANCH   1   8
TORSDOF 1
ENDMDL
MODEL 8
REMARK VINA RESULT:      -3.3     15.523     15.754
REMARK  Name = min_compound6.pdb
REMARK  1 active torsions:
REMARK  status: ('A' for Active; 'I' for Inactive)
REMARK    1  A    between atoms: _1  and  _8
REMARK                            x       y       z     vdW  Elec       q    Type
REMARK                         _______ _______ _______ _____ _____    ______ ____
ROOT
ATOM      1  C   UNL     1     -12.650  -3.879  -1.032  0.00  0.00    +0.208 C 
ATOM      2  S   UNL     1     -13.370  -5.397  -1.437  0.00  0.00    -0.048 S 
ATOM      3  S   UNL     1     -15.142  -4.591  -2.065  0.00  0.00    -0.031 S 
ATOM      4  C   UNL     1     -14.702  -2.922  -1.758  0.00  0.00    +0.119 C 
ATOM      5  S   UNL     1     -15.679  -1.609  -2.034  0.00  0.00    -0.027 S 
ATOM      6  N   UNL     1     -13.437  -2.800  -1.253  0.00  0.00    -0.308 N 
ATOM      7  H   UNL     1     -13.063  -1.889  -1.033  0.00  0.00    +0.149 HD
ENDROOT
BRANCH   1   8
ATOM      8  N   UNL     1     -11.467  -3.747  -0.559  0.00  0.00    -0.304 NA
ATOM      9  H   UNL     1     -11.507  -3.276   0.345  0.00  0.00    +0.121 HD
ATOM     10  H   UNL     1     -11.066  -4.686  -0.445  0.00  0.00    +0.121 HD
ENDBRANCH   1   8
TORSDOF 1
ENDMDL
MODEL 9
REMARK VINA RESULT:      -3.2      2.288      2.799
REMARK  Name = min_compound6.pdb
REMARK  1 active torsions:
REMARK  status: ('A' for Active; 'I' for Inactive)
REMARK    1  A    between atoms: _1  and  _8
REMARK                            x       y       z     vdW  Elec       q    Type
REMARK                         _______ _______ _______ _____ _____    ______ ____
ROOT
ATOM      1  C   UNL     1     -11.244   0.311 -16.808  0.00  0.00    +0.208 C 
ATOM      2  S   UNL     1     -10.804   1.698 -15.877  0.00  0.00    -0.048 S 
ATOM      3  S   UNL     1     -11.775   3.036 -17.083  0.00  0.00    -0.031 S 
ATOM      4  C   UNL     1     -12.378   1.848 -18.222  0.00  0.00    +0.119 C 
ATOM      5  S   UNL     1     -13.306   2.189 -19.556  0.00  0.00    -0.027 S 
ATOM      6  N   UNL     1     -12.001   0.575 -17.899  0.00  0.00    -0.308 N 
ATOM      7  H   UNL     1     -12.285  -0.203 -18.477  0.00  0.00    +0.149 HD
ENDROOT
BRANCH   1   8
ATOM      8  N   UNL     1     -10.899  -0.889 -16.519  0.00  0.00    -0.304 NA
ATOM      9  H   UNL     1     -11.378  -1.193 -15.672  0.00  0.00    +0.121 HD
ATOM     10  H   UNL     1     -11.165  -1.492 -17.307  0.00  0.00    +0.121 HD
ENDBRANCH   1   8
TORSDOF 1
ENDMDL
