MODEL 1
REMARK VINA RESULT:      -7.4      0.000      0.000
REMARK  Name = min_compound980.pdb
REMARK  8 active torsions:
REMARK  status: ('A' for Active; 'I' for Inactive)
REMARK    1  A    between atoms: _3  and  _7
REMARK    2  A    between atoms: _6  and  _19
REMARK    3  A    between atoms: _8  and  _9
REMARK    4  A    between atoms: _8  and  _10
REMARK    5  A    between atoms: _9  and  _13
REMARK    6  A    between atoms: _10  and  _11
REMARK    7  A    between atoms: _19  and  _20
REMARK    8  A    between atoms: _19  and  _21
REMARK                            x       y       z     vdW  Elec       q    Type
REMARK                         _______ _______ _______ _____ _____    ______ ____
ROOT
ATOM      1  C   UNL     1     -14.280   2.082 -16.124  0.00  0.00    +0.016 C 
ATOM      2  C   UNL     1     -13.475   2.635 -17.249  0.00  0.00    +0.014 C 
ENDROOT
BRANCH   1   4
ATOM      3  C   UNL     1     -16.413   2.375 -14.863  0.00  0.00    +0.010 A 
ATOM      4  C   UNL     1     -15.102   2.790 -15.100  0.00  0.00    -0.025 A 
ATOM      5  C   UNL     1     -14.628   3.841 -14.303  0.00  0.00    +0.010 A 
ATOM      6  C   UNL     1     -15.454   4.498 -13.357  0.00  0.00    +0.023 A 
ATOM      7  C   UNL     1     -16.777   4.101 -13.123  0.00  0.00    +0.029 A 
ATOM      8  C   UNL     1     -17.223   3.011 -13.894  0.00  0.00    +0.023 A 
BRANCH   7   9
ATOM      9  N   UNL     1     -17.555   4.710 -12.122  0.00  0.00    -0.336 N 
ATOM     10  C   UNL     1     -18.373   3.811 -11.243  0.00  0.00    +0.129 C 
ATOM     11  C   UNL     1     -17.063   5.945 -11.511  0.00  0.00    +0.129 C 
ENDBRANCH   7   9
ENDBRANCH   1   4
BRANCH   2  12
ATOM     12  C   UNL     1     -12.771   1.853 -18.117  0.00  0.00    +0.190 C 
ATOM     13  O   UNL     1     -12.898   1.798 -19.382  0.00  0.00    -0.287 OA
BRANCH  12  14
ATOM     14  C   UNL     1     -11.724   0.979 -17.480  0.00  0.00    +0.022 A 
ATOM     15  C   UNL     1     -12.065  -0.163 -16.741  0.00  0.00    +0.012 A 
ATOM     16  C   UNL     1     -11.072  -0.986 -16.200  0.00  0.00    +0.001 A 
ATOM     17  C   UNL     1      -9.726  -0.690 -16.412  0.00  0.00    +0.000 A 
ATOM     18  C   UNL     1      -9.372   0.428 -17.165  0.00  0.00    +0.001 A 
ATOM     19  C   UNL     1     -10.364   1.256 -17.694  0.00  0.00    +0.012 A 
ENDBRANCH  12  14
ENDBRANCH   2  12
BRANCH   2  20
ATOM     20  C   UNL     1     -13.546   4.133 -17.251  0.00  0.00    +0.117 C 
BRANCH  20  21
ATOM     21  N   UNL     1     -13.616   5.631 -17.254  0.00  0.00    -0.326 NA
ATOM     22  H   UNL     1     -14.431   5.934 -16.721  0.00  0.00    +0.119 HD
ATOM     23  H   UNL     1     -12.770   6.012 -16.829  0.00  0.00    +0.119 HD
ENDBRANCH  20  21
ENDBRANCH   2  20
TORSDOF 6
ENDMDL
MODEL 2
REMARK VINA RESULT:      -7.4      1.443      2.076
REMARK  Name = min_compound980.pdb
REMARK  8 active torsions:
REMARK  status: ('A' for Active; 'I' for Inactive)
REMARK    1  A    between atoms: _3  and  _7
REMARK    2  A    between atoms: _6  and  _19
REMARK    3  A    between atoms: _8  and  _9
REMARK    4  A    between atoms: _8  and  _10
REMARK    5  A    between atoms: _9  and  _13
REMARK    6  A    between atoms: _10  and  _11
REMARK    7  A    between atoms: _19  and  _20
REMARK    8  A    between atoms: _19  and  _21
REMARK                            x       y       z     vdW  Elec       q    Type
REMARK                         _______ _______ _______ _____ _____    ______ ____
ROOT
ATOM      1  C   UNL     1     -14.115   2.811 -16.637  0.00  0.00    +0.016 C 
ATOM      2  C   UNL     1     -12.879   2.869 -17.466  0.00  0.00    +0.014 C 
ENDROOT
BRANCH   1   4
ATOM      3  C   UNL     1     -15.506   4.852 -16.276  0.00  0.00    +0.010 A 
ATOM      4  C   UNL     1     -14.710   3.841 -15.735  0.00  0.00    -0.025 A 
ATOM      5  C   UNL     1     -14.561   3.843 -14.342  0.00  0.00    +0.010 A 
ATOM      6  C   UNL     1     -15.127   4.855 -13.528  0.00  0.00    +0.023 A 
ATOM      7  C   UNL     1     -15.914   5.886 -14.060  0.00  0.00    +0.029 A 
ATOM      8  C   UNL     1     -16.097   5.841 -15.456  0.00  0.00    +0.023 A 
BRANCH   7   9
ATOM      9  N   UNL     1     -16.535   6.833 -13.228  0.00  0.00    -0.336 N 
ATOM     10  C   UNL     1     -17.374   7.886 -13.891  0.00  0.00    +0.129 C 
ATOM     11  C   UNL     1     -16.949   6.420 -11.887  0.00  0.00    +0.129 C 
ENDBRANCH   7   9
ENDBRANCH   1   4
BRANCH   2  12
ATOM     12  C   UNL     1     -12.460   1.837 -18.253  0.00  0.00    +0.190 C 
ATOM     13  O   UNL     1     -12.782   1.609 -19.463  0.00  0.00    -0.287 OA
BRANCH  12  14
ATOM     14  C   UNL     1     -11.497   0.885 -17.594  0.00  0.00    +0.022 A 
ATOM     15  C   UNL     1     -10.108   1.051 -17.697  0.00  0.00    +0.012 A 
ATOM     16  C   UNL     1      -9.234   0.182 -17.036  0.00  0.00    +0.001 A 
ATOM     17  C   UNL     1      -9.740  -0.847 -16.242  0.00  0.00    +0.000 A 
ATOM     18  C   UNL     1     -11.118  -1.009 -16.109  0.00  0.00    +0.001 A 
ATOM     19  C   UNL     1     -11.989  -0.149 -16.781  0.00  0.00    +0.012 A 
ENDBRANCH  12  14
ENDBRANCH   2  12
BRANCH   2  20
ATOM     20  C   UNL     1     -12.189   4.187 -17.279  0.00  0.00    +0.117 C 
BRANCH  20  21
ATOM     21  N   UNL     1     -11.498   5.506 -17.092  0.00  0.00    -0.326 NA
ATOM     22  H   UNL     1     -12.057   6.245 -17.518  0.00  0.00    +0.119 HD
ATOM     23  H   UNL     1     -11.388   5.694 -16.096  0.00  0.00    +0.119 HD
ENDBRANCH  20  21
ENDBRANCH   2  20
TORSDOF 6
ENDMDL
MODEL 3
REMARK VINA RESULT:      -7.1      1.473      2.156
REMARK  Name = min_compound980.pdb
REMARK  8 active torsions:
REMARK  status: ('A' for Active; 'I' for Inactive)
REMARK    1  A    between atoms: _3  and  _7
REMARK    2  A    between atoms: _6  and  _19
REMARK    3  A    between atoms: _8  and  _9
REMARK    4  A    between atoms: _8  and  _10
REMARK    5  A    between atoms: _9  and  _13
REMARK    6  A    between atoms: _10  and  _11
REMARK    7  A    between atoms: _19  and  _20
REMARK    8  A    between atoms: _19  and  _21
REMARK                            x       y       z     vdW  Elec       q    Type
REMARK                         _______ _______ _______ _____ _____    ______ ____
ROOT
ATOM      1  C   UNL     1     -13.557   3.427 -15.329  0.00  0.00    +0.016 C 
ATOM      2  C   UNL     1     -13.206   3.315 -16.772  0.00  0.00    +0.014 C 
ENDROOT
BRANCH   1   4
ATOM      3  C   UNL     1     -15.238   4.742 -14.036  0.00  0.00    +0.010 A 
ATOM      4  C   UNL     1     -14.893   3.551 -14.677  0.00  0.00    -0.025 A 
ATOM      5  C   UNL     1     -15.872   2.549 -14.698  0.00  0.00    +0.010 A 
ATOM      6  C   UNL     1     -17.120   2.704 -14.045  0.00  0.00    +0.023 A 
ATOM      7  C   UNL     1     -17.471   3.889 -13.383  0.00  0.00    +0.029 A 
ATOM      8  C   UNL     1     -16.498   4.905 -13.414  0.00  0.00    +0.023 A 
BRANCH   7   9
ATOM      9  N   UNL     1     -18.745   4.055 -12.812  0.00  0.00    -0.336 N 
ATOM     10  C   UNL     1     -19.932   3.743 -13.675  0.00  0.00    +0.129 C 
ATOM     11  C   UNL     1     -18.903   3.816 -11.377  0.00  0.00    +0.129 C 
ENDBRANCH   7   9
ENDBRANCH   1   4
BRANCH   2  12
ATOM     12  C   UNL     1     -11.924   3.201 -17.221  0.00  0.00    +0.190 C 
ATOM     13  O   UNL     1     -11.181   4.129 -17.676  0.00  0.00    -0.287 OA
BRANCH  12  14
ATOM     14  C   UNL     1     -11.343   1.814 -17.144  0.00  0.00    +0.022 A 
ATOM     15  C   UNL     1      -9.986   1.565 -17.398  0.00  0.00    +0.012 A 
ATOM     16  C   UNL     1      -9.461   0.276 -17.272  0.00  0.00    +0.001 A 
ATOM     17  C   UNL     1     -10.280  -0.776 -16.865  0.00  0.00    +0.000 A 
ATOM     18  C   UNL     1     -11.625  -0.541 -16.584  0.00  0.00    +0.001 A 
ATOM     19  C   UNL     1     -12.151   0.745 -16.724  0.00  0.00    +0.012 A 
ENDBRANCH  12  14
ENDBRANCH   2  12
BRANCH   2  20
ATOM     20  C   UNL     1     -14.446   3.368 -17.614  0.00  0.00    +0.117 C 
BRANCH  20  21
ATOM     21  N   UNL     1     -15.687   3.421 -18.456  0.00  0.00    -0.326 NA
ATOM     22  H   UNL     1     -16.449   3.828 -17.913  0.00  0.00    +0.119 HD
ATOM     23  H   UNL     1     -15.513   3.996 -19.281  0.00  0.00    +0.119 HD
ENDBRANCH  20  21
ENDBRANCH   2  20
TORSDOF 6
ENDMDL
MODEL 4
REMARK VINA RESULT:      -7.1      6.094      9.222
REMARK  Name = min_compound980.pdb
REMARK  8 active torsions:
REMARK  status: ('A' for Active; 'I' for Inactive)
REMARK    1  A    between atoms: _3  and  _7
REMARK    2  A    between atoms: _6  and  _19
REMARK    3  A    between atoms: _8  and  _9
REMARK    4  A    between atoms: _8  and  _10
REMARK    5  A    between atoms: _9  and  _13
REMARK    6  A    between atoms: _10  and  _11
REMARK    7  A    between atoms: _19  and  _20
REMARK    8  A    between atoms: _19  and  _21
REMARK                            x       y       z     vdW  Elec       q    Type
REMARK                         _______ _______ _______ _____ _____    ______ ____
ROOT
ATOM      1  C   UNL     1     -16.786   1.470  -8.866  0.00  0.00    +0.016 C 
ATOM      2  C   UNL     1     -17.515   2.758  -9.028  0.00  0.00    +0.014 C 
ENDROOT
BRANCH   1   4
ATOM      3  C   UNL     1     -14.867   1.218  -7.291  0.00  0.00    +0.010 A 
ATOM      4  C   UNL     1     -16.170   0.867  -7.648  0.00  0.00    -0.025 A 
ATOM      5  C   UNL     1     -16.836  -0.016  -6.788  0.00  0.00    +0.010 A 
ATOM      6  C   UNL     1     -16.201  -0.581  -5.654  0.00  0.00    +0.023 A 
ATOM      7  C   UNL     1     -14.888  -0.250  -5.294  0.00  0.00    +0.029 A 
ATOM      8  C   UNL     1     -14.249   0.678  -6.139  0.00  0.00    +0.023 A 
BRANCH   7   9
ATOM      9  N   UNL     1     -14.303  -0.756  -4.120  0.00  0.00    -0.336 N 
ATOM     10  C   UNL     1     -13.864   0.238  -3.086  0.00  0.00    +0.129 C 
ATOM     11  C   UNL     1     -14.750  -2.058  -3.623  0.00  0.00    +0.129 C 
ENDBRANCH   7   9
ENDBRANCH   1   4
BRANCH   2  12
ATOM     12  C   UNL     1     -18.033   3.178 -10.219  0.00  0.00    +0.190 C 
ATOM     13  O   UNL     1     -19.261   3.311 -10.522  0.00  0.00    -0.287 OA
BRANCH  12  14
ATOM     14  C   UNL     1     -17.011   3.531 -11.266  0.00  0.00    +0.022 A 
ATOM     15  C   UNL     1     -17.142   3.111 -12.598  0.00  0.00    +0.012 A 
ATOM     16  C   UNL     1     -16.206   3.493 -13.564  0.00  0.00    +0.001 A 
ATOM     17  C   UNL     1     -15.139   4.321 -13.214  0.00  0.00    +0.000 A 
ATOM     18  C   UNL     1     -15.008   4.766 -11.900  0.00  0.00    +0.001 A 
ATOM     19  C   UNL     1     -15.938   4.373 -10.934  0.00  0.00    +0.012 A 
ENDBRANCH  12  14
ENDBRANCH   2  12
BRANCH   2  20
ATOM     20  C   UNL     1     -17.563   3.496  -7.724  0.00  0.00    +0.117 C 
BRANCH  20  21
ATOM     21  N   UNL     1     -17.610   4.235  -6.419  0.00  0.00    -0.326 NA
ATOM     22  H   UNL     1     -17.345   3.605  -5.662  0.00  0.00    +0.119 HD
ATOM     23  H   UNL     1     -16.961   5.022  -6.450  0.00  0.00    +0.119 HD
ENDBRANCH  20  21
ENDBRANCH   2  20
TORSDOF 6
ENDMDL
MODEL 5
REMARK VINA RESULT:      -7.1      1.758      2.091
REMARK  Name = min_compound980.pdb
REMARK  8 active torsions:
REMARK  status: ('A' for Active; 'I' for Inactive)
REMARK    1  A    between atoms: _3  and  _7
REMARK    2  A    between atoms: _6  and  _19
REMARK    3  A    between atoms: _8  and  _9
REMARK    4  A    between atoms: _8  and  _10
REMARK    5  A    between atoms: _9  and  _13
REMARK    6  A    between atoms: _10  and  _11
REMARK    7  A    between atoms: _19  and  _20
REMARK    8  A    between atoms: _19  and  _21
REMARK                            x       y       z     vdW  Elec       q    Type
REMARK                         _______ _______ _______ _____ _____    ______ ____
ROOT
ATOM      1  C   UNL     1     -13.369   3.419 -15.124  0.00  0.00    +0.016 C 
ATOM      2  C   UNL     1     -12.636   3.716 -16.385  0.00  0.00    +0.014 C 
ENDROOT
BRANCH   1   4
ATOM      3  C   UNL     1     -15.724   2.592 -15.094  0.00  0.00    +0.010 A 
ATOM      4  C   UNL     1     -14.812   3.604 -14.791  0.00  0.00    -0.025 A 
ATOM      5  C   UNL     1     -15.327   4.732 -14.138  0.00  0.00    +0.010 A 
ATOM      6  C   UNL     1     -16.710   4.874 -13.863  0.00  0.00    +0.023 A 
ATOM      7  C   UNL     1     -17.638   3.872 -14.178  0.00  0.00    +0.029 A 
ATOM      8  C   UNL     1     -17.098   2.723 -14.787  0.00  0.00    +0.023 A 
BRANCH   7   9
ATOM      9  N   UNL     1     -18.993   3.994 -13.822  0.00  0.00    -0.336 N 
ATOM     10  C   UNL     1     -20.011   3.524 -14.818  0.00  0.00    +0.129 C 
ATOM     11  C   UNL     1     -19.357   3.871 -12.410  0.00  0.00    +0.129 C 
ENDBRANCH   7   9
ENDBRANCH   1   4
BRANCH   2  12
ATOM     12  C   UNL     1     -11.301   3.485 -16.544  0.00  0.00    +0.190 C 
ATOM     13  O   UNL     1     -10.374   4.351 -16.633  0.00  0.00    -0.287 OA
BRANCH  12  14
ATOM     14  C   UNL     1     -10.910   2.032 -16.602  0.00  0.00    +0.022 A 
ATOM     15  C   UNL     1     -10.323   1.381 -15.506  0.00  0.00    +0.012 A 
ATOM     16  C   UNL     1     -10.014   0.019 -15.567  0.00  0.00    +0.001 A 
ATOM     17  C   UNL     1     -10.310  -0.715 -16.715  0.00  0.00    +0.000 A 
ATOM     18  C   UNL     1     -10.915  -0.087 -17.803  0.00  0.00    +0.001 A 
ATOM     19  C   UNL     1     -11.211   1.276 -17.745  0.00  0.00    +0.012 A 
ENDBRANCH  12  14
ENDBRANCH   2  12
BRANCH   2  20
ATOM     20  C   UNL     1     -13.567   4.307 -17.401  0.00  0.00    +0.117 C 
BRANCH  20  21
ATOM     21  N   UNL     1     -14.498   4.899 -18.418  0.00  0.00    -0.326 NA
ATOM     22  H   UNL     1     -14.057   4.875 -19.337  0.00  0.00    +0.119 HD
ATOM     23  H   UNL     1     -15.364   4.360 -18.441  0.00  0.00    +0.119 HD
ENDBRANCH  20  21
ENDBRANCH   2  20
TORSDOF 6
ENDMDL
MODEL 6
REMARK VINA RESULT:      -7.0      5.501      8.452
REMARK  Name = min_compound980.pdb
REMARK  8 active torsions:
REMARK  status: ('A' for Active; 'I' for Inactive)
REMARK    1  A    between atoms: _3  and  _7
REMARK    2  A    between atoms: _6  and  _19
REMARK    3  A    between atoms: _8  and  _9
REMARK    4  A    between atoms: _8  and  _10
REMARK    5  A    between atoms: _9  and  _13
REMARK    6  A    between atoms: _10  and  _11
REMARK    7  A    between atoms: _19  and  _20
REMARK    8  A    between atoms: _19  and  _21
REMARK                            x       y       z     vdW  Elec       q    Type
REMARK                         _______ _______ _______ _____ _____    ______ ____
ROOT
ATOM      1  C   UNL     1     -17.020   2.115  -9.081  0.00  0.00    +0.016 C 
ATOM      2  C   UNL     1     -17.414   3.378  -9.764  0.00  0.00    +0.014 C 
ENDROOT
BRANCH   1   4
ATOM      3  C   UNL     1     -15.090   1.488  -7.629  0.00  0.00    +0.010 A 
ATOM      4  C   UNL     1     -16.417   1.906  -7.732  0.00  0.00    -0.025 A 
ATOM      5  C   UNL     1     -17.090   2.147  -6.527  0.00  0.00    +0.010 A 
ATOM      6  C   UNL     1     -16.483   1.912  -5.268  0.00  0.00    +0.023 A 
ATOM      7  C   UNL     1     -15.156   1.476  -5.152  0.00  0.00    +0.029 A 
ATOM      8  C   UNL     1     -14.477   1.288  -6.370  0.00  0.00    +0.023 A 
BRANCH   7   9
ATOM      9  N   UNL     1     -14.544   1.328  -3.894  0.00  0.00    -0.336 N 
ATOM     10  C   UNL     1     -14.462  -0.058  -3.328  0.00  0.00    +0.129 C 
ATOM     11  C   UNL     1     -13.463   2.245  -3.532  0.00  0.00    +0.129 C 
ENDBRANCH   7   9
ENDBRANCH   1   4
BRANCH   2  12
ATOM     12  C   UNL     1     -17.965   3.411 -11.011  0.00  0.00    +0.190 C 
ATOM     13  O   UNL     1     -19.202   3.426 -11.309  0.00  0.00    -0.287 OA
BRANCH  12  14
ATOM     14  C   UNL     1     -16.972   3.450 -12.143  0.00  0.00    +0.022 A 
ATOM     15  C   UNL     1     -17.145   2.681 -13.304  0.00  0.00    +0.012 A 
ATOM     16  C   UNL     1     -16.236   2.771 -14.362  0.00  0.00    +0.001 A 
ATOM     17  C   UNL     1     -15.155   3.650 -14.283  0.00  0.00    +0.000 A 
ATOM     18  C   UNL     1     -14.984   4.438 -13.146  0.00  0.00    +0.001 A 
ATOM     19  C   UNL     1     -15.886   4.337 -12.085  0.00  0.00    +0.012 A 
ENDBRANCH  12  14
ENDBRANCH   2  12
BRANCH   2  20
ATOM     20  C   UNL     1     -17.095   4.560  -8.897  0.00  0.00    +0.117 C 
BRANCH  20  21
ATOM     21  N   UNL     1     -16.776   5.741  -8.030  0.00  0.00    -0.326 NA
ATOM     22  H   UNL     1     -17.099   6.595  -8.486  0.00  0.00    +0.119 HD
ATOM     23  H   UNL     1     -17.245   5.639  -7.129  0.00  0.00    +0.119 HD
ENDBRANCH  20  21
ENDBRANCH   2  20
TORSDOF 6
ENDMDL
MODEL 7
REMARK VINA RESULT:      -6.7      4.233      6.854
REMARK  Name = min_compound980.pdb
REMARK  8 active torsions:
REMARK  status: ('A' for Active; 'I' for Inactive)
REMARK    1  A    between atoms: _3  and  _7
REMARK    2  A    between atoms: _6  and  _19
REMARK    3  A    between atoms: _8  and  _9
REMARK    4  A    between atoms: _8  and  _10
REMARK    5  A    between atoms: _9  and  _13
REMARK    6  A    between atoms: _10  and  _11
REMARK    7  A    between atoms: _19  and  _20
REMARK    8  A    between atoms: _19  and  _21
REMARK                            x       y       z     vdW  Elec       q    Type
REMARK                         _______ _______ _______ _____ _____    ______ ____
ROOT
ATOM      1  C   UNL     1     -13.247   4.338 -18.109  0.00  0.00    +0.016 C 
ATOM      2  C   UNL     1     -13.350   2.854 -18.038  0.00  0.00    +0.014 C 
ENDROOT
BRANCH   1   4
ATOM      3  C   UNL     1     -11.888   5.729 -19.673  0.00  0.00    +0.010 A 
ATOM      4  C   UNL     1     -13.137   5.233 -19.299  0.00  0.00    -0.025 A 
ATOM      5  C   UNL     1     -14.219   5.586 -20.116  0.00  0.00    +0.010 A 
ATOM      6  C   UNL     1     -14.070   6.458 -21.223  0.00  0.00    +0.023 A 
ATOM      7  C   UNL     1     -12.823   6.977 -21.599  0.00  0.00    +0.029 A 
ATOM      8  C   UNL     1     -11.738   6.572 -20.799  0.00  0.00    +0.023 A 
BRANCH   7   9
ATOM      9  N   UNL     1     -12.681   7.773 -22.749  0.00  0.00    -0.336 N 
ATOM     10  C   UNL     1     -11.474   8.661 -22.827  0.00  0.00    +0.129 C 
ATOM     11  C   UNL     1     -13.197   7.263 -24.020  0.00  0.00    +0.129 C 
ENDBRANCH   7   9
ENDBRANCH   1   4
BRANCH   2  12
ATOM     12  C   UNL     1     -13.450   2.169 -16.864  0.00  0.00    +0.190 C 
ATOM     13  O   UNL     1     -14.434   2.160 -16.056  0.00  0.00    -0.287 OA
BRANCH  12  14
ATOM     14  C   UNL     1     -12.254   1.323 -16.518  0.00  0.00    +0.022 A 
ATOM     15  C   UNL     1     -11.103   1.874 -15.934  0.00  0.00    +0.012 A 
ATOM     16  C   UNL     1     -10.024   1.060 -15.576  0.00  0.00    +0.001 A 
ATOM     17  C   UNL     1     -10.091  -0.318 -15.776  0.00  0.00    +0.000 A 
ATOM     18  C   UNL     1     -11.237  -0.884 -16.333  0.00  0.00    +0.001 A 
ATOM     19  C   UNL     1     -12.309  -0.068 -16.701  0.00  0.00    +0.012 A 
ENDBRANCH  12  14
ENDBRANCH   2  12
BRANCH   2  20
ATOM     20  C   UNL     1     -13.303   2.263 -19.416  0.00  0.00    +0.117 C 
BRANCH  20  21
ATOM     21  N   UNL     1     -13.256   1.672 -20.794  0.00  0.00    -0.326 NA
ATOM     22  H   UNL     1     -13.947   2.133 -21.386  0.00  0.00    +0.119 HD
ATOM     23  H   UNL     1     -12.325   1.806 -21.190  0.00  0.00    +0.119 HD
ENDBRANCH  20  21
ENDBRANCH   2  20
TORSDOF 6
ENDMDL
MODEL 8
REMARK VINA RESULT:      -6.7      6.789     10.648
REMARK  Name = min_compound980.pdb
REMARK  8 active torsions:
REMARK  status: ('A' for Active; 'I' for Inactive)
REMARK    1  A    between atoms: _3  and  _7
REMARK    2  A    between atoms: _6  and  _19
REMARK    3  A    between atoms: _8  and  _9
REMARK    4  A    between atoms: _8  and  _10
REMARK    5  A    between atoms: _9  and  _13
REMARK    6  A    between atoms: _10  and  _11
REMARK    7  A    between atoms: _19  and  _20
REMARK    8  A    between atoms: _19  and  _21
REMARK                            x       y       z     vdW  Elec       q    Type
REMARK                         _______ _______ _______ _____ _____    ______ ____
ROOT
ATOM      1  C   UNL     1     -17.278   2.353  -6.842  0.00  0.00    +0.016 C 
ATOM      2  C   UNL     1     -17.278   3.178  -5.602  0.00  0.00    +0.014 C 
ENDROOT
BRANCH   1   4
ATOM      3  C   UNL     1     -16.079   3.096  -8.901  0.00  0.00    +0.010 A 
ATOM      4  C   UNL     1     -17.284   2.778  -8.272  0.00  0.00    -0.025 A 
ATOM      5  C   UNL     1     -18.436   2.840  -9.067  0.00  0.00    +0.010 A 
ATOM      6  C   UNL     1     -18.396   3.271 -10.416  0.00  0.00    +0.023 A 
ATOM      7  C   UNL     1     -17.194   3.610 -11.054  0.00  0.00    +0.029 A 
ATOM      8  C   UNL     1     -16.039   3.493 -10.258  0.00  0.00    +0.023 A 
BRANCH   7   9
ATOM      9  N   UNL     1     -17.164   3.955 -12.416  0.00  0.00    -0.336 N 
ATOM     10  C   UNL     1     -16.230   5.056 -12.826  0.00  0.00    +0.129 C 
ATOM     11  C   UNL     1     -17.411   2.908 -13.407  0.00  0.00    +0.129 C 
ENDBRANCH   7   9
ENDBRANCH   1   4
BRANCH   2  12
ATOM     12  C   UNL     1     -17.267   2.641  -4.349  0.00  0.00    +0.190 C 
ATOM     13  O   UNL     1     -18.234   2.586  -3.524  0.00  0.00    -0.287 OA
BRANCH  12  14
ATOM     14  C   UNL     1     -15.953   2.039  -3.927  0.00  0.00    +0.022 A 
ATOM     15  C   UNL     1     -15.827   0.674  -3.630  0.00  0.00    +0.012 A 
ATOM     16  C   UNL     1     -14.586   0.128  -3.288  0.00  0.00    +0.001 A 
ATOM     17  C   UNL     1     -13.450   0.937  -3.264  0.00  0.00    +0.000 A 
ATOM     18  C   UNL     1     -13.554   2.291  -3.581  0.00  0.00    +0.001 A 
ATOM     19  C   UNL     1     -14.797   2.836  -3.910  0.00  0.00    +0.012 A 
ENDBRANCH  12  14
ENDBRANCH   2  12
BRANCH   2  20
ATOM     20  C   UNL     1     -17.315   4.637  -5.948  0.00  0.00    +0.117 C 
BRANCH  20  21
ATOM     21  N   UNL     1     -17.352   6.096  -6.294  0.00  0.00    -0.326 NA
ATOM     22  H   UNL     1     -17.146   6.648  -5.462  0.00  0.00    +0.119 HD
ATOM     23  H   UNL     1     -16.656   6.292  -7.014  0.00  0.00    +0.119 HD
ENDBRANCH  20  21
ENDBRANCH   2  20
TORSDOF 6
ENDMDL
MODEL 9
REMARK VINA RESULT:      -6.7      2.132      3.087
REMARK  Name = min_compound980.pdb
REMARK  8 active torsions:
REMARK  status: ('A' for Active; 'I' for Inactive)
REMARK    1  A    between atoms: _3  and  _7
REMARK    2  A    between atoms: _6  and  _19
REMARK    3  A    between atoms: _8  and  _9
REMARK    4  A    between atoms: _8  and  _10
REMARK    5  A    between atoms: _9  and  _13
REMARK    6  A    between atoms: _10  and  _11
REMARK    7  A    between atoms: _19  and  _20
REMARK    8  A    between atoms: _19  and  _21
REMARK                            x       y       z     vdW  Elec       q    Type
REMARK                         _______ _______ _______ _____ _____    ______ ____
ROOT
ATOM      1  C   UNL     1     -14.819   3.791 -14.247  0.00  0.00    +0.016 C 
ATOM      2  C   UNL     1     -14.774   4.663 -15.453  0.00  0.00    +0.014 C 
ENDROOT
BRANCH   1   4
ATOM      3  C   UNL     1     -16.734   3.428 -12.688  0.00  0.00    +0.010 A 
ATOM      4  C   UNL     1     -15.490   4.012 -12.932  0.00  0.00    -0.025 A 
ATOM      5  C   UNL     1     -14.928   4.746 -11.879  0.00  0.00    +0.010 A 
ATOM      6  C   UNL     1     -15.613   4.947 -10.655  0.00  0.00    +0.023 A 
ATOM      7  C   UNL     1     -16.870   4.380 -10.404  0.00  0.00    +0.029 A 
ATOM      8  C   UNL     1     -17.399   3.603 -11.452  0.00  0.00    +0.023 A 
BRANCH   7   9
ATOM      9  N   UNL     1     -17.497   4.522  -9.153  0.00  0.00    -0.336 N 
ATOM     10  C   UNL     1     -17.858   3.266  -8.418  0.00  0.00    +0.129 C 
ATOM     11  C   UNL     1     -17.159   5.684  -8.331  0.00  0.00    +0.129 C 
ENDBRANCH   7   9
ENDBRANCH   1   4
BRANCH   2  12
ATOM     12  C   UNL     1     -14.117   4.320 -16.598  0.00  0.00    +0.190 C 
ATOM     13  O   UNL     1     -14.393   4.684 -17.785  0.00  0.00    -0.287 OA
BRANCH  12  14
ATOM     14  C   UNL     1     -12.925   3.421 -16.400  0.00  0.00    +0.022 A 
ATOM     15  C   UNL     1     -11.697   3.914 -15.934  0.00  0.00    +0.012 A 
ATOM     16  C   UNL     1     -10.619   3.051 -15.711  0.00  0.00    +0.001 A 
ATOM     17  C   UNL     1     -10.764   1.682 -15.930  0.00  0.00    +0.000 A 
ATOM     18  C   UNL     1     -11.985   1.174 -16.370  0.00  0.00    +0.001 A 
ATOM     19  C   UNL     1     -13.056   2.038 -16.603  0.00  0.00    +0.012 A 
ENDBRANCH  12  14
ENDBRANCH   2  12
BRANCH   2  20
ATOM     20  C   UNL     1     -15.522   5.938 -15.201  0.00  0.00    +0.117 C 
BRANCH  20  21
ATOM     21  N   UNL     1     -16.270   7.214 -14.948  0.00  0.00    -0.326 NA
ATOM     22  H   UNL     1     -15.771   7.992 -15.379  0.00  0.00    +0.119 HD
ATOM     23  H   UNL     1     -17.205   7.145 -15.351  0.00  0.00    +0.119 HD
ENDBRANCH  20  21
ENDBRANCH   2  20
TORSDOF 6
ENDMDL
