MODEL 1
REMARK VINA RESULT:      -5.5      0.000      0.000
REMARK  Name = min_compound9.pdb
REMARK  0 active torsions:
REMARK  status: ('A' for Active; 'I' for Inactive)
REMARK                            x       y       z     vdW  Elec       q    Type
REMARK                         _______ _______ _______ _____ _____    ______ ____
ROOT
ATOM      1  C   UNL     1     -11.349  -1.082 -16.241  0.00  0.00    +0.023 A 
ATOM      2  C   UNL     1     -10.162  -0.720 -15.623  0.00  0.00    +0.113 A 
ATOM      3  N   UNL     1      -9.740   0.557 -15.493  0.00  0.00    -0.237 NA
ATOM      4  C   UNL     1     -10.542   1.512 -16.006  0.00  0.00    +0.167 A 
ATOM      5  N   UNL     1     -10.105   2.817 -15.866  0.00  0.00    -0.265 N 
ATOM      6  H   UNL     1      -9.229   2.972 -15.390  0.00  0.00    +0.156 HD
ATOM      7  C   UNL     1     -10.810   3.877 -16.343  0.00  0.00    +0.256 C 
ATOM      8  O   UNL     1     -10.410   5.032 -16.209  0.00  0.00    -0.272 OA
ATOM      9  C   UNL     1     -12.116   3.536 -17.065  0.00  0.00    +0.325 C 
ATOM     10  O   UNL     1     -12.582   2.199 -17.165  0.00  0.00    -0.479 OA
ATOM     11  C   UNL     1     -11.750   1.252 -16.644  0.00  0.00    +0.161 A 
ATOM     12  C   UNL     1     -12.156  -0.074 -16.760  0.00  0.00    +0.051 A 
ENDROOT
TORSDOF 0
ENDMDL
MODEL 2
REMARK VINA RESULT:      -5.4      1.890      2.338
REMARK  Name = min_compound9.pdb
REMARK  0 active torsions:
REMARK  status: ('A' for Active; 'I' for Inactive)
REMARK                            x       y       z     vdW  Elec       q    Type
REMARK                         _______ _______ _______ _____ _____    ______ ____
ROOT
ATOM      1  C   UNL     1      -9.611  -0.646 -16.105  0.00  0.00    +0.023 A 
ATOM      2  C   UNL     1     -10.120  -0.842 -17.379  0.00  0.00    +0.113 A 
ATOM      3  N   UNL     1     -10.989   0.001 -17.980  0.00  0.00    -0.237 NA
ATOM      4  C   UNL     1     -11.364   1.085 -17.271  0.00  0.00    +0.167 A 
ATOM      5  N   UNL     1     -12.252   1.945 -17.894  0.00  0.00    -0.265 N 
ATOM      6  H   UNL     1     -12.554   1.714 -18.828  0.00  0.00    +0.156 HD
ATOM      7  C   UNL     1     -12.720   3.071 -17.292  0.00  0.00    +0.256 C 
ATOM      8  O   UNL     1     -13.506   3.827 -17.859  0.00  0.00    -0.272 OA
ATOM      9  C   UNL     1     -12.214   3.323 -15.869  0.00  0.00    +0.325 C 
ATOM     10  O   UNL     1     -11.269   2.461 -15.253  0.00  0.00    -0.479 OA
ATOM     11  C   UNL     1     -10.911   1.370 -15.987  0.00  0.00    +0.161 A 
ATOM     12  C   UNL     1     -10.015   0.482 -15.399  0.00  0.00    +0.051 A 
ENDROOT
TORSDOF 0
ENDMDL
MODEL 3
REMARK VINA RESULT:      -5.3      1.997      2.794
REMARK  Name = min_compound9.pdb
REMARK  0 active torsions:
REMARK  status: ('A' for Active; 'I' for Inactive)
REMARK                            x       y       z     vdW  Elec       q    Type
REMARK                         _______ _______ _______ _____ _____    ______ ____
ROOT
ATOM      1  C   UNL     1      -9.957   0.256 -15.536  0.00  0.00    +0.023 A 
ATOM      2  C   UNL     1     -10.053  -0.564 -16.649  0.00  0.00    +0.113 A 
ATOM      3  N   UNL     1     -10.813  -0.280 -17.730  0.00  0.00    -0.237 NA
ATOM      4  C   UNL     1     -11.507   0.876 -17.692  0.00  0.00    +0.167 A 
ATOM      5  N   UNL     1     -12.279   1.162 -18.803  0.00  0.00    -0.265 N 
ATOM      6  H   UNL     1     -12.272   0.501 -19.565  0.00  0.00    +0.156 HD
ATOM      7  C   UNL     1     -13.035   2.288 -18.896  0.00  0.00    +0.256 C 
ATOM      8  O   UNL     1     -13.715   2.531 -19.891  0.00  0.00    -0.272 OA
ATOM      9  C   UNL     1     -12.992   3.219 -17.680  0.00  0.00    +0.325 C 
ATOM     10  O   UNL     1     -12.162   2.943 -16.563  0.00  0.00    -0.479 OA
ATOM     11  C   UNL     1     -11.477   1.765 -16.623  0.00  0.00    +0.161 A 
ATOM     12  C   UNL     1     -10.683   1.443 -15.527  0.00  0.00    +0.051 A 
ENDROOT
TORSDOF 0
ENDMDL
MODEL 4
REMARK VINA RESULT:      -5.1      1.530      1.627
REMARK  Name = min_compound9.pdb
REMARK  0 active torsions:
REMARK  status: ('A' for Active; 'I' for Inactive)
REMARK                            x       y       z     vdW  Elec       q    Type
REMARK                         _______ _______ _______ _____ _____    ______ ____
ROOT
ATOM      1  C   UNL     1     -10.456  -0.838 -17.008  0.00  0.00    +0.023 A 
ATOM      2  C   UNL     1      -9.513   0.101 -17.396  0.00  0.00    +0.113 A 
ATOM      3  N   UNL     1      -9.758   1.428 -17.468  0.00  0.00    -0.237 NA
ATOM      4  C   UNL     1     -11.002   1.830 -17.138  0.00  0.00    +0.167 A 
ATOM      5  N   UNL     1     -11.244   3.190 -17.211  0.00  0.00    -0.265 N 
ATOM      6  H   UNL     1     -10.484   3.790 -17.496  0.00  0.00    +0.156 HD
ATOM      7  C   UNL     1     -12.455   3.732 -16.915  0.00  0.00    +0.256 C 
ATOM      8  O   UNL     1     -12.655   4.943 -16.981  0.00  0.00    -0.272 OA
ATOM      9  C   UNL     1     -13.547   2.738 -16.509  0.00  0.00    +0.325 C 
ATOM     10  O   UNL     1     -13.279   1.348 -16.392  0.00  0.00    -0.479 OA
ATOM     11  C   UNL     1     -12.017   0.967 -16.737  0.00  0.00    +0.161 A 
ATOM     12  C   UNL     1     -11.730  -0.392 -16.672  0.00  0.00    +0.051 A 
ENDROOT
TORSDOF 0
ENDMDL
MODEL 5
REMARK VINA RESULT:      -5.1      2.363      4.178
REMARK  Name = min_compound9.pdb
REMARK  0 active torsions:
REMARK  status: ('A' for Active; 'I' for Inactive)
REMARK                            x       y       z     vdW  Elec       q    Type
REMARK                         _______ _______ _______ _____ _____    ______ ____
ROOT
ATOM      1  C   UNL     1     -13.241   3.875 -16.634  0.00  0.00    +0.023 A 
ATOM      2  C   UNL     1     -13.552   3.274 -17.843  0.00  0.00    +0.113 A 
ATOM      3  N   UNL     1     -12.957   2.149 -18.299  0.00  0.00    -0.237 NA
ATOM      4  C   UNL     1     -12.009   1.605 -17.509  0.00  0.00    +0.167 A 
ATOM      5  N   UNL     1     -11.407   0.452 -17.981  0.00  0.00    -0.265 N 
ATOM      6  H   UNL     1     -11.714   0.091 -18.871  0.00  0.00    +0.156 HD
ATOM      7  C   UNL     1     -10.431  -0.195 -17.291  0.00  0.00    +0.256 C 
ATOM      8  O   UNL     1      -9.907  -1.221 -17.721  0.00  0.00    -0.272 OA
ATOM      9  C   UNL     1     -10.024   0.442 -15.959  0.00  0.00    +0.325 C 
ATOM     10  O   UNL     1     -10.677   1.599 -15.459  0.00  0.00    -0.479 OA
ATOM     11  C   UNL     1     -11.626   2.132 -16.280  0.00  0.00    +0.161 A 
ATOM     12  C   UNL     1     -12.260   3.290 -15.839  0.00  0.00    +0.051 A 
ENDROOT
TORSDOF 0
ENDMDL
MODEL 6
REMARK VINA RESULT:      -4.9     11.587     12.104
REMARK  Name = min_compound9.pdb
REMARK  0 active torsions:
REMARK  status: ('A' for Active; 'I' for Inactive)
REMARK                            x       y       z     vdW  Elec       q    Type
REMARK                         _______ _______ _______ _____ _____    ______ ____
ROOT
ATOM      1  C   UNL     1     -13.747   0.513  -3.079  0.00  0.00    +0.023 A 
ATOM      2  C   UNL     1     -14.342  -0.733  -2.963  0.00  0.00    +0.113 A 
ATOM      3  N   UNL     1     -15.041  -1.328  -3.955  0.00  0.00    -0.237 NA
ATOM      4  C   UNL     1     -15.149  -0.642  -5.112  0.00  0.00    +0.167 A 
ATOM      5  N   UNL     1     -15.863  -1.260  -6.123  0.00  0.00    -0.265 N 
ATOM      6  H   UNL     1     -16.248  -2.174  -5.939  0.00  0.00    +0.156 HD
ATOM      7  C   UNL     1     -16.058  -0.679  -7.337  0.00  0.00    +0.256 C 
ATOM      8  O   UNL     1     -16.692  -1.240  -8.228  0.00  0.00    -0.272 OA
ATOM      9  C   UNL     1     -15.449   0.715  -7.512  0.00  0.00    +0.325 C 
ATOM     10  O   UNL     1     -14.678   1.323  -6.486  0.00  0.00    -0.479 OA
ATOM     11  C   UNL     1     -14.590   0.613  -5.326  0.00  0.00    +0.161 A 
ATOM     12  C   UNL     1     -13.875   1.196  -4.284  0.00  0.00    +0.051 A 
ENDROOT
TORSDOF 0
ENDMDL
MODEL 7
REMARK VINA RESULT:      -4.8      1.897      3.846
REMARK  Name = min_compound9.pdb
REMARK  0 active torsions:
REMARK  status: ('A' for Active; 'I' for Inactive)
REMARK                            x       y       z     vdW  Elec       q    Type
REMARK                         _______ _______ _______ _____ _____    ______ ____
ROOT
ATOM      1  C   UNL     1     -12.761   4.474 -18.292  0.00  0.00    +0.023 A 
ATOM      2  C   UNL     1     -11.843   4.945 -17.367  0.00  0.00    +0.113 A 
ATOM      3  N   UNL     1     -11.048   4.146 -16.621  0.00  0.00    -0.237 NA
ATOM      4  C   UNL     1     -11.180   2.817 -16.812  0.00  0.00    +0.167 A 
ATOM      5  N   UNL     1     -10.360   2.006 -16.048  0.00  0.00    -0.265 N 
ATOM      6  H   UNL     1      -9.718   2.452 -15.410  0.00  0.00    +0.156 HD
ATOM      7  C   UNL     1     -10.394   0.649 -16.132  0.00  0.00    +0.256 C 
ATOM      8  O   UNL     1      -9.658  -0.059 -15.449  0.00  0.00    -0.272 OA
ATOM      9  C   UNL     1     -11.414   0.070 -17.117  0.00  0.00    +0.325 C 
ATOM     10  O   UNL     1     -12.220   0.909 -17.930  0.00  0.00    -0.479 OA
ATOM     11  C   UNL     1     -12.072   2.247 -17.714  0.00  0.00    +0.161 A 
ATOM     12  C   UNL     1     -12.874   3.098 -18.466  0.00  0.00    +0.051 A 
ENDROOT
TORSDOF 0
ENDMDL
MODEL 8
REMARK VINA RESULT:      -4.5     12.476     13.097
REMARK  Name = min_compound9.pdb
REMARK  0 active torsions:
REMARK  status: ('A' for Active; 'I' for Inactive)
REMARK                            x       y       z     vdW  Elec       q    Type
REMARK                         _______ _______ _______ _____ _____    ______ ____
ROOT
ATOM      1  C   UNL     1     -15.377   1.460  -6.449  0.00  0.00    +0.023 A 
ATOM      2  C   UNL     1     -14.910   0.360  -7.150  0.00  0.00    +0.113 A 
ATOM      3  N   UNL     1     -14.634  -0.834  -6.579  0.00  0.00    -0.237 NA
ATOM      4  C   UNL     1     -14.834  -0.926  -5.248  0.00  0.00    +0.167 A 
ATOM      5  N   UNL     1     -14.552  -2.153  -4.672  0.00  0.00    -0.265 N 
ATOM      6  H   UNL     1     -14.226  -2.893  -5.275  0.00  0.00    +0.156 HD
ATOM      7  C   UNL     1     -14.701  -2.383  -3.340  0.00  0.00    +0.256 C 
ATOM      8  O   UNL     1     -14.450  -3.479  -2.842  0.00  0.00    -0.272 OA
ATOM      9  C   UNL     1     -15.186  -1.192  -2.510  0.00  0.00    +0.325 C 
ATOM     10  O   UNL     1     -15.516   0.050  -3.114  0.00  0.00    -0.479 OA
ATOM     11  C   UNL     1     -15.299   0.119  -4.458  0.00  0.00    +0.161 A 
ATOM     12  C   UNL     1     -15.575   1.334  -5.078  0.00  0.00    +0.051 A 
ENDROOT
TORSDOF 0
ENDMDL
MODEL 9
REMARK VINA RESULT:      -4.5     11.611     12.057
REMARK  Name = min_compound9.pdb
REMARK  0 active torsions:
REMARK  status: ('A' for Active; 'I' for Inactive)
REMARK                            x       y       z     vdW  Elec       q    Type
REMARK                         _______ _______ _______ _____ _____    ______ ____
ROOT
ATOM      1  C   UNL     1     -13.416   1.304  -3.533  0.00  0.00    +0.023 A 
ATOM      2  C   UNL     1     -14.311   2.359  -3.612  0.00  0.00    +0.113 A 
ATOM      3  N   UNL     1     -15.330   2.417  -4.499  0.00  0.00    -0.237 NA
ATOM      4  C   UNL     1     -15.454   1.372  -5.343  0.00  0.00    +0.167 A 
ATOM      5  N   UNL     1     -16.500   1.437  -6.245  0.00  0.00    -0.265 N 
ATOM      6  H   UNL     1     -17.101   2.247  -6.213  0.00  0.00    +0.156 HD
ATOM      7  C   UNL     1     -16.737   0.458  -7.159  0.00  0.00    +0.256 C 
ATOM      8  O   UNL     1     -17.673   0.527  -7.953  0.00  0.00    -0.272 OA
ATOM      9  C   UNL     1     -15.759  -0.720  -7.138  0.00  0.00    +0.325 C 
ATOM     10  O   UNL     1     -14.715  -0.803  -6.180  0.00  0.00    -0.479 OA
ATOM     11  C   UNL     1     -14.607   0.268  -5.343  0.00  0.00    +0.161 A 
ATOM     12  C   UNL     1     -13.571   0.240  -4.416  0.00  0.00    +0.051 A 
ENDROOT
TORSDOF 0
ENDMDL
