MODEL 1
REMARK VINA RESULT:      -8.0      0.000      0.000
REMARK  Name = min_compound953.pdb
REMARK  4 active torsions:
REMARK  status: ('A' for Active; 'I' for Inactive)
REMARK    1  A    between atoms: _5  and  _14
REMARK    2  A    between atoms: _5  and  _15
REMARK    3  A    between atoms: _6  and  _13
REMARK    4  A    between atoms: _12  and  _16
REMARK                            x       y       z     vdW  Elec       q    Type
REMARK                         _______ _______ _______ _____ _____    ______ ____
ROOT
ATOM      1  C   UNL     1     -11.021   3.826 -16.085  0.00  0.00    +0.304 C 
ATOM      2  O   UNL     1     -12.277   3.729 -16.594  0.00  0.00    -0.436 OA
ATOM      3  C   UNL     1     -12.391   4.899 -17.398  0.00  0.00    +0.222 C 
ATOM      4  C   UNL     1     -13.551   5.727 -16.935  0.00  0.00    +0.214 C 
ATOM      5  C   UNL     1     -14.450   6.414 -17.946  0.00  0.00    +0.099 C 
ATOM      6  C   UNL     1     -15.143   7.675 -17.554  0.00  0.00    +0.044 C 
ATOM      7  C   UNL     1     -14.355   6.106 -19.419  0.00  0.00    +0.044 C 
ATOM      8  C   UNL     1     -12.983   5.552 -19.857  0.00  0.00    -0.027 C 
ATOM      9  C   UNL     1     -11.971   6.704 -19.985  0.00  0.00    +0.011 C 
ATOM     10  C   UNL     1     -13.132   4.903 -21.250  0.00  0.00    +0.011 C 
ATOM     11  O   UNL     1     -14.885   5.258 -17.201  0.00  0.00    -0.359 OA
ATOM     12  C   UNL     1     -12.513   4.458 -18.866  0.00  0.00    +0.079 C 
ATOM     13  N   UNL     1     -11.146   5.661 -17.164  0.00  0.00    -0.222 N 
ATOM     14  H   UNL     1     -10.925   6.546 -17.533  0.00  0.00    +0.172 HD
ATOM     15  N   UNL     1     -10.368   4.912 -16.348  0.00  0.00    -0.131 NA
ATOM     16  N   UNL     1     -10.598   2.824 -15.314  0.00  0.00    -0.268 N 
ATOM     17  H   UNL     1     -10.474   2.943 -14.344  0.00  0.00    +0.157 HD
ENDROOT
BRANCH  16  18
ATOM     18  C   UNL     1     -10.341   1.628 -15.917  0.00  0.00    +0.035 A 
ATOM     19  C   UNL     1     -10.066   1.467 -17.287  0.00  0.00    +0.023 A 
ATOM     20  C   UNL     1      -9.782   0.216 -17.846  0.00  0.00    +0.002 A 
ATOM     21  C   UNL     1      -9.757  -0.917 -17.039  0.00  0.00    +0.000 A 
ATOM     22  C   UNL     1     -10.012  -0.791 -15.676  0.00  0.00    +0.002 A 
ATOM     23  C   UNL     1     -10.295   0.468 -15.128  0.00  0.00    +0.023 A 
ENDBRANCH  16  18
TORSDOF 1
ENDMDL
MODEL 2
REMARK VINA RESULT:      -7.5      4.325      6.156
REMARK  Name = min_compound953.pdb
REMARK  4 active torsions:
REMARK  status: ('A' for Active; 'I' for Inactive)
REMARK    1  A    between atoms: _5  and  _14
REMARK    2  A    between atoms: _5  and  _15
REMARK    3  A    between atoms: _6  and  _13
REMARK    4  A    between atoms: _12  and  _16
REMARK                            x       y       z     vdW  Elec       q    Type
REMARK                         _______ _______ _______ _____ _____    ______ ____
ROOT
ATOM      1  C   UNL     1     -15.899   4.027 -15.103  0.00  0.00    +0.304 C 
ATOM      2  O   UNL     1     -14.995   3.021 -15.235  0.00  0.00    -0.436 OA
ATOM      3  C   UNL     1     -14.085   3.530 -16.205  0.00  0.00    +0.222 C 
ATOM      4  C   UNL     1     -14.022   2.605 -17.383  0.00  0.00    +0.214 C 
ATOM      5  C   UNL     1     -12.695   2.319 -18.059  0.00  0.00    +0.099 C 
ATOM      6  C   UNL     1     -12.685   1.972 -19.510  0.00  0.00    +0.044 C 
ATOM      7  C   UNL     1     -11.389   2.756 -17.444  0.00  0.00    +0.044 C 
ATOM      8  C   UNL     1     -11.521   3.949 -16.474  0.00  0.00    -0.027 C 
ATOM      9  C   UNL     1     -11.636   5.260 -17.272  0.00  0.00    +0.011 C 
ATOM     10  C   UNL     1     -10.240   4.036 -15.617  0.00  0.00    +0.011 C 
ATOM     11  O   UNL     1     -13.356   1.339 -17.232  0.00  0.00    -0.359 OA
ATOM     12  C   UNL     1     -12.721   3.729 -15.521  0.00  0.00    +0.079 C 
ATOM     13  N   UNL     1     -14.659   4.818 -16.648  0.00  0.00    -0.222 N 
ATOM     14  H   UNL     1     -14.301   5.407 -17.351  0.00  0.00    +0.172 HD
ATOM     15  N   UNL     1     -15.770   5.036 -15.905  0.00  0.00    -0.131 NA
ATOM     16  N   UNL     1     -16.869   3.860 -14.205  0.00  0.00    -0.268 N 
ATOM     17  H   UNL     1     -17.803   3.713 -14.482  0.00  0.00    +0.157 HD
ENDROOT
BRANCH  16  18
ATOM     18  C   UNL     1     -16.523   3.899 -12.886  0.00  0.00    +0.035 A 
ATOM     19  C   UNL     1     -15.529   4.735 -12.346  0.00  0.00    +0.023 A 
ATOM     20  C   UNL     1     -15.235   4.752 -10.979  0.00  0.00    +0.002 A 
ATOM     21  C   UNL     1     -15.941   3.932 -10.104  0.00  0.00    +0.000 A 
ATOM     22  C   UNL     1     -16.940   3.101 -10.605  0.00  0.00    +0.002 A 
ATOM     23  C   UNL     1     -17.225   3.093 -11.977  0.00  0.00    +0.023 A 
ENDBRANCH  16  18
TORSDOF 1
ENDMDL
MODEL 3
REMARK VINA RESULT:      -7.5      1.946      2.233
REMARK  Name = min_compound953.pdb
REMARK  4 active torsions:
REMARK  status: ('A' for Active; 'I' for Inactive)
REMARK    1  A    between atoms: _5  and  _14
REMARK    2  A    between atoms: _5  and  _15
REMARK    3  A    between atoms: _6  and  _13
REMARK    4  A    between atoms: _12  and  _16
REMARK                            x       y       z     vdW  Elec       q    Type
REMARK                         _______ _______ _______ _____ _____    ______ ____
ROOT
ATOM      1  C   UNL     1     -13.499   2.701 -16.742  0.00  0.00    +0.304 C 
ATOM      2  O   UNL     1     -13.665   2.946 -18.068  0.00  0.00    -0.436 OA
ATOM      3  C   UNL     1     -13.882   4.353 -18.111  0.00  0.00    +0.222 C 
ATOM      4  C   UNL     1     -15.205   4.647 -18.753  0.00  0.00    +0.214 C 
ATOM      5  C   UNL     1     -15.347   5.818 -19.707  0.00  0.00    +0.099 C 
ATOM      6  C   UNL     1     -16.673   6.490 -19.831  0.00  0.00    +0.044 C 
ATOM      7  C   UNL     1     -14.142   6.567 -20.216  0.00  0.00    +0.044 C 
ATOM      8  C   UNL     1     -12.905   6.464 -19.300  0.00  0.00    -0.027 C 
ATOM      9  C   UNL     1     -13.057   7.427 -18.108  0.00  0.00    +0.011 C 
ATOM     10  C   UNL     1     -11.658   6.902 -20.097  0.00  0.00    +0.011 C 
ATOM     11  O   UNL     1     -15.343   4.452 -20.171  0.00  0.00    -0.359 OA
ATOM     12  C   UNL     1     -12.697   4.996 -18.851  0.00  0.00    +0.079 C 
ATOM     13  N   UNL     1     -13.937   4.787 -16.700  0.00  0.00    -0.222 N 
ATOM     14  H   UNL     1     -14.123   5.698 -16.375  0.00  0.00    +0.172 HD
ATOM     15  N   UNL     1     -13.683   3.698 -15.937  0.00  0.00    -0.131 NA
ATOM     16  N   UNL     1     -13.222   1.446 -16.386  0.00  0.00    -0.268 N 
ATOM     17  H   UNL     1     -13.882   0.894 -15.908  0.00  0.00    +0.157 HD
ENDROOT
BRANCH  16  18
ATOM     18  C   UNL     1     -11.990   0.956 -16.706  0.00  0.00    +0.035 A 
ATOM     19  C   UNL     1     -10.920   1.734 -17.184  0.00  0.00    +0.023 A 
ATOM     20  C   UNL     1      -9.668   1.181 -17.470  0.00  0.00    +0.002 A 
ATOM     21  C   UNL     1      -9.448  -0.179 -17.276  0.00  0.00    +0.000 A 
ATOM     22  C   UNL     1     -10.482  -0.976 -16.793  0.00  0.00    +0.002 A 
ATOM     23  C   UNL     1     -11.732  -0.409 -16.509  0.00  0.00    +0.023 A 
ENDBRANCH  16  18
TORSDOF 1
ENDMDL
MODEL 4
REMARK VINA RESULT:      -7.4      3.402      4.519
REMARK  Name = min_compound953.pdb
REMARK  4 active torsions:
REMARK  status: ('A' for Active; 'I' for Inactive)
REMARK    1  A    between atoms: _5  and  _14
REMARK    2  A    between atoms: _5  and  _15
REMARK    3  A    between atoms: _6  and  _13
REMARK    4  A    between atoms: _12  and  _16
REMARK                            x       y       z     vdW  Elec       q    Type
REMARK                         _______ _______ _______ _____ _____    ______ ____
ROOT
ATOM      1  C   UNL     1     -13.698   3.309 -17.510  0.00  0.00    +0.304 C 
ATOM      2  O   UNL     1     -13.788   3.996 -16.341  0.00  0.00    -0.436 OA
ATOM      3  C   UNL     1     -15.193   4.089 -16.128  0.00  0.00    +0.222 C 
ATOM      4  C   UNL     1     -15.602   5.528 -16.028  0.00  0.00    +0.214 C 
ATOM      5  C   UNL     1     -16.642   5.957 -15.011  0.00  0.00    +0.099 C 
ATOM      6  C   UNL     1     -17.489   7.149 -15.306  0.00  0.00    +0.044 C 
ATOM      7  C   UNL     1     -17.120   5.018 -13.932  0.00  0.00    +0.044 C 
ATOM      8  C   UNL     1     -16.949   3.525 -14.279  0.00  0.00    -0.027 C 
ATOM      9  C   UNL     1     -18.074   3.077 -15.230  0.00  0.00    +0.011 C 
ATOM     10  C   UNL     1     -17.078   2.696 -12.983  0.00  0.00    +0.011 C 
ATOM     11  O   UNL     1     -15.243   6.267 -14.847  0.00  0.00    -0.359 OA
ATOM     12  C   UNL     1     -15.540   3.275 -14.870  0.00  0.00    +0.079 C 
ATOM     13  N   UNL     1     -15.815   3.507 -17.336  0.00  0.00    -0.222 N 
ATOM     14  H   UNL     1     -16.778   3.460 -17.533  0.00  0.00    +0.172 HD
ATOM     15  N   UNL     1     -14.810   3.050 -18.121  0.00  0.00    -0.131 NA
ATOM     16  N   UNL     1     -12.475   3.017 -17.952  0.00  0.00    -0.268 N 
ATOM     17  H   UNL     1     -12.100   3.459 -18.747  0.00  0.00    +0.157 HD
ENDROOT
BRANCH  16  18
ATOM     18  C   UNL     1     -11.761   2.082 -17.262  0.00  0.00    +0.035 A 
ATOM     19  C   UNL     1     -10.969   2.355 -16.132  0.00  0.00    +0.023 A 
ATOM     20  C   UNL     1     -10.280   1.349 -15.447  0.00  0.00    +0.002 A 
ATOM     21  C   UNL     1     -10.373   0.027 -15.872  0.00  0.00    +0.000 A 
ATOM     22  C   UNL     1     -11.159  -0.279 -16.980  0.00  0.00    +0.002 A 
ATOM     23  C   UNL     1     -11.844   0.738 -17.658  0.00  0.00    +0.023 A 
ENDBRANCH  16  18
TORSDOF 1
ENDMDL
MODEL 5
REMARK VINA RESULT:      -7.2      4.565      6.204
REMARK  Name = min_compound953.pdb
REMARK  4 active torsions:
REMARK  status: ('A' for Active; 'I' for Inactive)
REMARK    1  A    between atoms: _5  and  _14
REMARK    2  A    between atoms: _5  and  _15
REMARK    3  A    between atoms: _6  and  _13
REMARK    4  A    between atoms: _12  and  _16
REMARK                            x       y       z     vdW  Elec       q    Type
REMARK                         _______ _______ _______ _____ _____    ______ ____
ROOT
ATOM      1  C   UNL     1     -15.143   4.566 -15.968  0.00  0.00    +0.304 C 
ATOM      2  O   UNL     1     -15.021   5.453 -14.946  0.00  0.00    -0.436 OA
ATOM      3  C   UNL     1     -16.096   5.098 -14.082  0.00  0.00    +0.222 C 
ATOM      4  C   UNL     1     -17.000   6.277 -13.879  0.00  0.00    +0.214 C 
ATOM      5  C   UNL     1     -17.591   6.559 -12.512  0.00  0.00    +0.099 C 
ATOM      6  C   UNL     1     -18.906   7.260 -12.426  0.00  0.00    +0.044 C 
ATOM      7  C   UNL     1     -17.119   5.823 -11.284  0.00  0.00    +0.044 C 
ATOM      8  C   UNL     1     -16.484   4.449 -11.582  0.00  0.00    -0.027 C 
ATOM      9  C   UNL     1     -17.588   3.408 -11.836  0.00  0.00    +0.011 C 
ATOM     10  C   UNL     1     -15.688   3.990 -10.341  0.00  0.00    +0.011 C 
ATOM     11  O   UNL     1     -16.537   7.371 -13.069  0.00  0.00    -0.359 OA
ATOM     12  C   UNL     1     -15.496   4.566 -12.769  0.00  0.00    +0.079 C 
ATOM     13  N   UNL     1     -16.847   4.046 -14.798  0.00  0.00    -0.222 N 
ATOM     14  H   UNL     1     -17.680   3.615 -14.497  0.00  0.00    +0.172 HD
ATOM     15  N   UNL     1     -16.176   3.786 -15.944  0.00  0.00    -0.131 NA
ATOM     16  N   UNL     1     -14.223   4.618 -16.932  0.00  0.00    -0.268 N 
ATOM     17  H   UNL     1     -14.447   4.944 -17.834  0.00  0.00    +0.157 HD
ENDROOT
BRANCH  16  18
ATOM     18  C   UNL     1     -12.961   4.203 -16.624  0.00  0.00    +0.035 A 
ATOM     19  C   UNL     1     -11.788   4.918 -16.929  0.00  0.00    +0.023 A 
ATOM     20  C   UNL     1     -10.520   4.455 -16.563  0.00  0.00    +0.002 A 
ATOM     21  C   UNL     1     -10.390   3.258 -15.867  0.00  0.00    +0.000 A 
ATOM     22  C   UNL     1     -11.532   2.531 -15.539  0.00  0.00    +0.002 A 
ATOM     23  C   UNL     1     -12.797   3.005 -15.911  0.00  0.00    +0.023 A 
ENDBRANCH  16  18
TORSDOF 1
ENDMDL
MODEL 6
REMARK VINA RESULT:      -7.2      8.943     11.386
REMARK  Name = min_compound953.pdb
REMARK  4 active torsions:
REMARK  status: ('A' for Active; 'I' for Inactive)
REMARK    1  A    between atoms: _5  and  _14
REMARK    2  A    between atoms: _5  and  _15
REMARK    3  A    between atoms: _6  and  _13
REMARK    4  A    between atoms: _12  and  _16
REMARK                            x       y       z     vdW  Elec       q    Type
REMARK                         _______ _______ _______ _____ _____    ______ ____
ROOT
ATOM      1  C   UNL     1     -16.569   3.662  -9.061  0.00  0.00    +0.304 C 
ATOM      2  O   UNL     1     -15.593   2.757  -8.787  0.00  0.00    -0.436 OA
ATOM      3  C   UNL     1     -16.188   1.933  -7.790  0.00  0.00    +0.222 C 
ATOM      4  C   UNL     1     -15.351   1.950  -6.547  0.00  0.00    +0.214 C 
ATOM      5  C   UNL     1     -15.140   0.676  -5.751  0.00  0.00    +0.099 C 
ATOM      6  C   UNL     1     -14.897   0.775  -4.282  0.00  0.00    +0.044 C 
ATOM      7  C   UNL     1     -15.558  -0.668  -6.293  0.00  0.00    +0.044 C 
ATOM      8  C   UNL     1     -16.676  -0.596  -7.354  0.00  0.00    -0.027 C 
ATOM      9  C   UNL     1     -18.038  -0.400  -6.665  0.00  0.00    +0.011 C 
ATOM     10  C   UNL     1     -16.727  -1.939  -8.114  0.00  0.00    +0.011 C 
ATOM     11  O   UNL     1     -14.091   1.256  -6.553  0.00  0.00    -0.359 OA
ATOM     12  C   UNL     1     -16.364   0.523  -8.379  0.00  0.00    +0.079 C 
ATOM     13  N   UNL     1     -17.492   2.559  -7.487  0.00  0.00    -0.222 N 
ATOM     14  H   UNL     1     -18.137   2.266  -6.803  0.00  0.00    +0.172 HD
ATOM     15  N   UNL     1     -17.634   3.611  -8.327  0.00  0.00    -0.131 NA
ATOM     16  N   UNL     1     -16.319   4.557 -10.017  0.00  0.00    -0.268 N 
ATOM     17  H   UNL     1     -16.174   5.507  -9.803  0.00  0.00    +0.157 HD
ENDROOT
BRANCH  16  18
ATOM     18  C   UNL     1     -16.271   4.108 -11.305  0.00  0.00    +0.035 A 
ATOM     19  C   UNL     1     -17.183   3.198 -11.868  0.00  0.00    +0.023 A 
ATOM     20  C   UNL     1     -17.101   2.794 -13.205  0.00  0.00    +0.002 A 
ATOM     21  C   UNL     1     -16.098   3.303 -14.025  0.00  0.00    +0.000 A 
ATOM     22  C   UNL     1     -15.186   4.215 -13.502  0.00  0.00    +0.002 A 
ATOM     23  C   UNL     1     -15.279   4.611 -12.161  0.00  0.00    +0.023 A 
ENDBRANCH  16  18
TORSDOF 1
ENDMDL
MODEL 7
REMARK VINA RESULT:      -7.1      3.890      5.243
REMARK  Name = min_compound953.pdb
REMARK  4 active torsions:
REMARK  status: ('A' for Active; 'I' for Inactive)
REMARK    1  A    between atoms: _5  and  _14
REMARK    2  A    between atoms: _5  and  _15
REMARK    3  A    between atoms: _6  and  _13
REMARK    4  A    between atoms: _12  and  _16
REMARK                            x       y       z     vdW  Elec       q    Type
REMARK                         _______ _______ _______ _____ _____    ______ ____
ROOT
ATOM      1  C   UNL     1     -14.704   3.059 -16.410  0.00  0.00    +0.304 C 
ATOM      2  O   UNL     1     -14.355   4.192 -15.747  0.00  0.00    -0.436 OA
ATOM      3  C   UNL     1     -15.458   4.407 -14.873  0.00  0.00    +0.222 C 
ATOM      4  C   UNL     1     -16.063   5.754 -15.134  0.00  0.00    +0.214 C 
ATOM      5  C   UNL     1     -16.537   6.615 -13.979  0.00  0.00    +0.099 C 
ATOM      6  C   UNL     1     -17.653   7.578 -14.209  0.00  0.00    +0.044 C 
ATOM      7  C   UNL     1     -16.211   6.261 -12.550  0.00  0.00    +0.044 C 
ATOM      8  C   UNL     1     -15.917   4.764 -12.326  0.00  0.00    -0.027 C 
ATOM      9  C   UNL     1     -17.236   3.974 -12.270  0.00  0.00    +0.011 C 
ATOM     10  C   UNL     1     -15.213   4.595 -10.963  0.00  0.00    +0.011 C 
ATOM     11  O   UNL     1     -15.340   6.928 -14.722  0.00  0.00    -0.359 OA
ATOM     12  C   UNL     1     -14.961   4.241 -13.427  0.00  0.00    +0.079 C 
ATOM     13  N   UNL     1     -16.450   3.370 -15.226  0.00  0.00    -0.222 N 
ATOM     14  H   UNL     1     -17.350   3.267 -14.843  0.00  0.00    +0.172 HD
ATOM     15  N   UNL     1     -15.887   2.587 -16.177  0.00  0.00    -0.131 NA
ATOM     16  N   UNL     1     -13.823   2.568 -17.283  0.00  0.00    -0.268 N 
ATOM     17  H   UNL     1     -13.991   2.605 -18.252  0.00  0.00    +0.157 HD
ENDROOT
BRANCH  16  18
ATOM     18  C   UNL     1     -12.682   2.013 -16.784  0.00  0.00    +0.035 A 
ATOM     19  C   UNL     1     -12.351   0.649 -16.873  0.00  0.00    +0.023 A 
ATOM     20  C   UNL     1     -11.151   0.140 -16.366  0.00  0.00    +0.002 A 
ATOM     21  C   UNL     1     -10.235   0.993 -15.758  0.00  0.00    +0.000 A 
ATOM     22  C   UNL     1     -10.525   2.352 -15.665  0.00  0.00    +0.002 A 
ATOM     23  C   UNL     1     -11.731   2.849 -16.176  0.00  0.00    +0.023 A 
ENDBRANCH  16  18
TORSDOF 1
ENDMDL
MODEL 8
REMARK VINA RESULT:      -7.0     11.002     12.161
REMARK  Name = min_compound953.pdb
REMARK  4 active torsions:
REMARK  status: ('A' for Active; 'I' for Inactive)
REMARK    1  A    between atoms: _5  and  _14
REMARK    2  A    between atoms: _5  and  _15
REMARK    3  A    between atoms: _6  and  _13
REMARK    4  A    between atoms: _12  and  _16
REMARK                            x       y       z     vdW  Elec       q    Type
REMARK                         _______ _______ _______ _____ _____    ______ ____
ROOT
ATOM      1  C   UNL     1     -17.460   3.382  -5.154  0.00  0.00    +0.304 C 
ATOM      2  O   UNL     1     -17.598   2.598  -6.255  0.00  0.00    -0.436 OA
ATOM      3  C   UNL     1     -17.802   3.543  -7.300  0.00  0.00    +0.222 C 
ATOM      4  C   UNL     1     -19.109   3.276  -7.984  0.00  0.00    +0.214 C 
ATOM      5  C   UNL     1     -19.221   3.402  -9.491  0.00  0.00    +0.099 C 
ATOM      6  C   UNL     1     -20.539   3.770 -10.087  0.00  0.00    +0.044 C 
ATOM      7  C   UNL     1     -18.000   3.566 -10.360  0.00  0.00    +0.044 C 
ATOM      8  C   UNL     1     -16.783   4.163  -9.624  0.00  0.00    -0.027 C 
ATOM      9  C   UNL     1     -16.949   5.688  -9.492  0.00  0.00    +0.011 C 
ATOM     10  C   UNL     1     -15.516   3.904 -10.468  0.00  0.00    +0.011 C 
ATOM     11  O   UNL     1     -19.221   2.120  -8.832  0.00  0.00    -0.359 OA
ATOM     12  C   UNL     1     -16.597   3.467  -8.253  0.00  0.00    +0.079 C 
ATOM     13  N   UNL     1     -17.880   4.860  -6.633  0.00  0.00    -0.222 N 
ATOM     14  H   UNL     1     -18.064   5.724  -7.066  0.00  0.00    +0.172 HD
ATOM     15  N   UNL     1     -17.650   4.653  -5.315  0.00  0.00    -0.131 NA
ATOM     16  N   UNL     1     -17.201   2.769  -3.998  0.00  0.00    -0.268 N 
ATOM     17  H   UNL     1     -17.876   2.723  -3.282  0.00  0.00    +0.157 HD
ENDROOT
BRANCH  16  18
ATOM     18  C   UNL     1     -15.968   2.208  -3.844  0.00  0.00    +0.035 A 
ATOM     19  C   UNL     1     -14.759   2.926  -3.831  0.00  0.00    +0.023 A 
ATOM     20  C   UNL     1     -13.523   2.299  -3.641  0.00  0.00    +0.002 A 
ATOM     21  C   UNL     1     -13.464   0.922  -3.447  0.00  0.00    +0.000 A 
ATOM     22  C   UNL     1     -14.644   0.183  -3.442  0.00  0.00    +0.002 A 
ATOM     23  C   UNL     1     -15.875   0.823  -3.634  0.00  0.00    +0.023 A 
ENDBRANCH  16  18
TORSDOF 1
ENDMDL
MODEL 9
REMARK VINA RESULT:      -6.8      1.954      2.452
REMARK  Name = min_compound953.pdb
REMARK  4 active torsions:
REMARK  status: ('A' for Active; 'I' for Inactive)
REMARK    1  A    between atoms: _5  and  _14
REMARK    2  A    between atoms: _5  and  _15
REMARK    3  A    between atoms: _6  and  _13
REMARK    4  A    between atoms: _12  and  _16
REMARK                            x       y       z     vdW  Elec       q    Type
REMARK                         _______ _______ _______ _____ _____    ______ ____
ROOT
ATOM      1  C   UNL     1     -12.292   3.625 -17.647  0.00  0.00    +0.304 C 
ATOM      2  O   UNL     1     -13.432   3.105 -18.172  0.00  0.00    -0.436 OA
ATOM      3  C   UNL     1     -13.677   3.939 -19.300  0.00  0.00    +0.222 C 
ATOM      4  C   UNL     1     -15.027   4.579 -19.179  0.00  0.00    +0.214 C 
ATOM      5  C   UNL     1     -15.915   4.726 -20.400  0.00  0.00    +0.099 C 
ATOM      6  C   UNL     1     -16.889   5.855 -20.451  0.00  0.00    +0.044 C 
ATOM      7  C   UNL     1     -15.582   4.040 -21.701  0.00  0.00    +0.044 C 
ATOM      8  C   UNL     1     -14.085   3.710 -21.870  0.00  0.00    -0.027 C 
ATOM      9  C   UNL     1     -13.315   4.975 -22.287  0.00  0.00    +0.011 C 
ATOM     10  C   UNL     1     -13.930   2.675 -23.005  0.00  0.00    +0.011 C 
ATOM     11  O   UNL     1     -16.198   3.764 -19.363  0.00  0.00    -0.359 OA
ATOM     12  C   UNL     1     -13.529   3.081 -20.568  0.00  0.00    +0.079 C 
ATOM     13  N   UNL     1     -12.648   4.997 -19.241  0.00  0.00    -0.222 N 
ATOM     14  H   UNL     1     -12.564   5.766 -19.849  0.00  0.00    +0.172 HD
ATOM     15  N   UNL     1     -11.841   4.710 -18.192  0.00  0.00    -0.131 NA
ATOM     16  N   UNL     1     -11.774   3.009 -16.584  0.00  0.00    -0.268 N 
ATOM     17  H   UNL     1     -11.796   3.425 -15.692  0.00  0.00    +0.157 HD
ENDROOT
BRANCH  16  18
ATOM     18  C   UNL     1     -11.213   1.781 -16.778  0.00  0.00    +0.035 A 
ATOM     19  C   UNL     1      -9.932   1.564 -17.318  0.00  0.00    +0.023 A 
ATOM     20  C   UNL     1      -9.396   0.281 -17.468  0.00  0.00    +0.002 A 
ATOM     21  C   UNL     1     -10.131  -0.831 -17.069  0.00  0.00    +0.000 A 
ATOM     22  C   UNL     1     -11.397  -0.651 -16.519  0.00  0.00    +0.002 A 
ATOM     23  C   UNL     1     -11.923   0.640 -16.374  0.00  0.00    +0.023 A 
ENDBRANCH  16  18
TORSDOF 1
ENDMDL
