MODEL 1
REMARK VINA RESULT:      -7.6      0.000      0.000
REMARK  Name = min_compound996.pdb
REMARK  5 active torsions:
REMARK  status: ('A' for Active; 'I' for Inactive)
REMARK    1  A    between atoms: _2  and  _9
REMARK    2  A    between atoms: _2  and  _19
REMARK    3  A    between atoms: _10  and  _19
REMARK    4  A    between atoms: _19  and  _20
REMARK    5  A    between atoms: _19  and  _21
REMARK                            x       y       z     vdW  Elec       q    Type
REMARK                         _______ _______ _______ _____ _____    ______ ____
ROOT
ATOM      1  S   UNL     1     -14.715   2.719 -16.421  0.00  0.00    -0.013 S 
ENDROOT
BRANCH   1   2
ATOM      2  C   UNL     1     -12.957   2.839 -16.242  0.00  0.00    +0.124 A 
ATOM      3  C   UNL     1     -12.196   1.672 -16.294  0.00  0.00    +0.097 A 
ATOM      4  C   UNL     1     -10.798   1.819 -16.137  0.00  0.00    +0.002 A 
ATOM      5  C   UNL     1     -10.222   3.087 -15.938  0.00  0.00    +0.010 A 
ATOM      6  C   UNL     1     -11.015   4.229 -15.891  0.00  0.00    +0.003 A 
ATOM      7  C   UNL     1      -9.993   0.674 -16.188  0.00  0.00    +0.011 A 
ATOM      8  C   UNL     1     -10.567  -0.573 -16.391  0.00  0.00    +0.020 A 
ATOM      9  C   UNL     1     -11.936  -0.633 -16.536  0.00  0.00    +0.111 A 
ATOM     10  N   UNL     1     -12.742   0.450 -16.487  0.00  0.00    -0.253 NA
ATOM     11  C   UNL     1     -12.389   4.109 -16.043  0.00  0.00    +0.030 A 
ENDBRANCH   1   2
BRANCH   1  12
ATOM     12  O   UNL     1     -15.115   1.475 -15.788  0.00  0.00    -0.263 OA
ATOM     13  H   UNL     1     -14.513   1.278 -15.055  0.00  0.00    +0.244 HD
ENDBRANCH   1  12
BRANCH   1  14
ATOM     14  O   UNL     1     -15.001   2.936 -17.832  0.00  0.00    -0.263 OA
ATOM     15  H   UNL     1     -14.849   2.112 -18.322  0.00  0.00    +0.244 HD
ENDBRANCH   1  14
BRANCH   1  16
ATOM     16  O   UNL     1     -15.315   4.002 -15.607  0.00  0.00    -0.363 OA
BRANCH  16  21
ATOM     17 CL   UNL     1     -16.917   3.596  -9.976  0.00  0.00    -0.084 Cl
ATOM     18  C   UNL     1     -16.463   3.700 -11.632  0.00  0.00    +0.041 A 
ATOM     19  C   UNL     1     -17.216   3.036 -12.600  0.00  0.00    +0.023 A 
ATOM     20  C   UNL     1     -16.849   3.118 -13.946  0.00  0.00    +0.050 A 
ATOM     21  C   UNL     1     -15.721   3.855 -14.308  0.00  0.00    +0.155 A 
ATOM     22  C   UNL     1     -14.982   4.537 -13.341  0.00  0.00    +0.050 A 
ATOM     23  C   UNL     1     -15.347   4.453 -11.997  0.00  0.00    +0.023 A 
ENDBRANCH  16  21
ENDBRANCH   1  16
TORSDOF 5
ENDMDL
MODEL 2
REMARK VINA RESULT:      -7.4      1.921      2.457
REMARK  Name = min_compound996.pdb
REMARK  5 active torsions:
REMARK  status: ('A' for Active; 'I' for Inactive)
REMARK    1  A    between atoms: _2  and  _9
REMARK    2  A    between atoms: _2  and  _19
REMARK    3  A    between atoms: _10  and  _19
REMARK    4  A    between atoms: _19  and  _20
REMARK    5  A    between atoms: _19  and  _21
REMARK                            x       y       z     vdW  Elec       q    Type
REMARK                         _______ _______ _______ _____ _____    ______ ____
ROOT
ATOM      1  S   UNL     1     -13.508   3.250 -18.834  0.00  0.00    -0.013 S 
ENDROOT
BRANCH   1   2
ATOM      2  C   UNL     1     -12.178   3.275 -17.665  0.00  0.00    +0.124 A 
ATOM      3  C   UNL     1     -11.709   2.065 -17.156  0.00  0.00    +0.097 A 
ATOM      4  C   UNL     1     -10.652   2.138 -16.219  0.00  0.00    +0.002 A 
ATOM      5  C   UNL     1     -10.114   3.378 -15.831  0.00  0.00    +0.010 A 
ATOM      6  C   UNL     1     -10.610   4.565 -16.360  0.00  0.00    +0.003 A 
ATOM      7  C   UNL     1     -10.146   0.946 -15.685  0.00  0.00    +0.011 A 
ATOM      8  C   UNL     1     -10.677  -0.275 -16.078  0.00  0.00    +0.020 A 
ATOM      9  C   UNL     1     -11.704  -0.263 -16.995  0.00  0.00    +0.111 A 
ATOM     10  N   UNL     1     -12.220   0.868 -17.526  0.00  0.00    -0.253 NA
ATOM     11  C   UNL     1     -11.646   4.518 -17.281  0.00  0.00    +0.030 A 
ENDBRANCH   1   2
BRANCH   1  12
ATOM     12  O   UNL     1     -13.285   2.104 -19.697  0.00  0.00    -0.263 OA
ATOM     13  H   UNL     1     -13.652   1.310 -19.281  0.00  0.00    +0.244 HD
ENDBRANCH   1  12
BRANCH   1  14
ATOM     14  O   UNL     1     -13.576   4.585 -19.409  0.00  0.00    -0.263 OA
ATOM     15  H   UNL     1     -12.930   4.659 -20.129  0.00  0.00    +0.244 HD
ENDBRANCH   1  14
BRANCH   1  16
ATOM     16  O   UNL     1     -14.859   3.044 -17.939  0.00  0.00    -0.363 OA
BRANCH  16  21
ATOM     17 CL   UNL     1     -15.588   6.067 -12.961  0.00  0.00    -0.084 Cl
ATOM     18  C   UNL     1     -15.367   5.163 -14.409  0.00  0.00    +0.041 A 
ATOM     19  C   UNL     1     -15.010   3.817 -14.338  0.00  0.00    +0.023 A 
ATOM     20  C   UNL     1     -14.829   3.081 -15.512  0.00  0.00    +0.050 A 
ATOM     21  C   UNL     1     -14.995   3.706 -16.748  0.00  0.00    +0.155 A 
ATOM     22  C   UNL     1     -15.373   5.047 -16.817  0.00  0.00    +0.050 A 
ATOM     23  C   UNL     1     -15.552   5.782 -15.644  0.00  0.00    +0.023 A 
ENDBRANCH  16  21
ENDBRANCH   1  16
TORSDOF 5
ENDMDL
MODEL 3
REMARK VINA RESULT:      -7.3      4.199      6.160
REMARK  Name = min_compound996.pdb
REMARK  5 active torsions:
REMARK  status: ('A' for Active; 'I' for Inactive)
REMARK    1  A    between atoms: _2  and  _9
REMARK    2  A    between atoms: _2  and  _19
REMARK    3  A    between atoms: _10  and  _19
REMARK    4  A    between atoms: _19  and  _20
REMARK    5  A    between atoms: _19  and  _21
REMARK                            x       y       z     vdW  Elec       q    Type
REMARK                         _______ _______ _______ _____ _____    ______ ____
ROOT
ATOM      1  S   UNL     1     -13.898   3.162 -18.412  0.00  0.00    -0.013 S 
ENDROOT
BRANCH   1   2
ATOM      2  C   UNL     1     -13.083   4.715 -18.652  0.00  0.00    +0.124 A 
ATOM      3  C   UNL     1     -12.924   5.195 -19.951  0.00  0.00    +0.097 A 
ATOM      4  C   UNL     1     -12.258   6.435 -20.092  0.00  0.00    +0.002 A 
ATOM      5  C   UNL     1     -11.785   7.135 -18.967  0.00  0.00    +0.010 A 
ATOM      6  C   UNL     1     -11.962   6.622 -17.686  0.00  0.00    +0.003 A 
ATOM      7  C   UNL     1     -12.080   6.959 -21.379  0.00  0.00    +0.011 A 
ATOM      8  C   UNL     1     -12.555   6.267 -22.485  0.00  0.00    +0.020 A 
ATOM      9  C   UNL     1     -13.193   5.066 -22.265  0.00  0.00    +0.111 A 
ATOM     10  N   UNL     1     -13.376   4.529 -21.038  0.00  0.00    -0.253 NA
ATOM     11  C   UNL     1     -12.612   5.408 -17.523  0.00  0.00    +0.030 A 
ENDBRANCH   1   2
BRANCH   1  12
ATOM     12  O   UNL     1     -13.282   2.220 -19.328  0.00  0.00    -0.263 OA
ATOM     13  H   UNL     1     -13.530   2.445 -20.238  0.00  0.00    +0.244 HD
ENDBRANCH   1  12
BRANCH   1  14
ATOM     14  O   UNL     1     -15.326   3.428 -18.502  0.00  0.00    -0.263 OA
ATOM     15  H   UNL     1     -15.779   2.647 -18.858  0.00  0.00    +0.244 HD
ENDBRANCH   1  14
BRANCH   1  16
ATOM     16  O   UNL     1     -13.584   2.751 -16.862  0.00  0.00    -0.363 OA
BRANCH  16  21
ATOM     17 CL   UNL     1      -9.337  -1.158 -15.802  0.00  0.00    -0.084 Cl
ATOM     18  C   UNL     1     -10.569   0.004 -16.105  0.00  0.00    +0.041 A 
ATOM     19  C   UNL     1     -10.291   1.363 -15.957  0.00  0.00    +0.023 A 
ATOM     20  C   UNL     1     -11.291   2.309 -16.202  0.00  0.00    +0.050 A 
ATOM     21  C   UNL     1     -12.564   1.883 -16.581  0.00  0.00    +0.155 A 
ATOM     22  C   UNL     1     -12.833   0.524 -16.750  0.00  0.00    +0.050 A 
ATOM     23  C   UNL     1     -11.836  -0.420 -16.504  0.00  0.00    +0.023 A 
ENDBRANCH  16  21
ENDBRANCH   1  16
TORSDOF 5
ENDMDL
MODEL 4
REMARK VINA RESULT:      -7.0      3.746      6.642
REMARK  Name = min_compound996.pdb
REMARK  5 active torsions:
REMARK  status: ('A' for Active; 'I' for Inactive)
REMARK    1  A    between atoms: _2  and  _9
REMARK    2  A    between atoms: _2  and  _19
REMARK    3  A    between atoms: _10  and  _19
REMARK    4  A    between atoms: _19  and  _20
REMARK    5  A    between atoms: _19  and  _21
REMARK                            x       y       z     vdW  Elec       q    Type
REMARK                         _______ _______ _______ _____ _____    ______ ____
ROOT
ATOM      1  S   UNL     1     -14.219   3.654 -16.403  0.00  0.00    -0.013 S 
ENDROOT
BRANCH   1   2
ATOM      2  C   UNL     1     -14.246   5.376 -16.815  0.00  0.00    +0.124 A 
ATOM      3  C   UNL     1     -14.883   6.263 -15.950  0.00  0.00    +0.097 A 
ATOM      4  C   UNL     1     -14.885   7.627 -16.327  0.00  0.00    +0.002 A 
ATOM      5  C   UNL     1     -14.270   8.048 -17.521  0.00  0.00    +0.010 A 
ATOM      6  C   UNL     1     -13.645   7.131 -18.360  0.00  0.00    +0.003 A 
ATOM      7  C   UNL     1     -15.509   8.555 -15.485  0.00  0.00    +0.011 A 
ATOM      8  C   UNL     1     -16.107   8.134 -14.305  0.00  0.00    +0.020 A 
ATOM      9  C   UNL     1     -16.062   6.790 -14.008  0.00  0.00    +0.111 A 
ATOM     10  N   UNL     1     -15.474   5.867 -14.800  0.00  0.00    -0.253 NA
ATOM     11  C   UNL     1     -13.630   5.789 -18.010  0.00  0.00    +0.030 A 
ENDBRANCH   1   2
BRANCH   1  12
ATOM     12  O   UNL     1     -15.593   3.187 -16.472  0.00  0.00    -0.263 OA
ATOM     13  H   UNL     1     -16.194   3.947 -16.438  0.00  0.00    +0.244 HD
ENDBRANCH   1  12
BRANCH   1  14
ATOM     14  O   UNL     1     -13.480   3.541 -15.155  0.00  0.00    -0.263 OA
ATOM     15  H   UNL     1     -12.732   2.934 -15.277  0.00  0.00    +0.244 HD
ENDBRANCH   1  14
BRANCH   1  16
ATOM     16  O   UNL     1     -13.311   2.951 -17.565  0.00  0.00    -0.363 OA
BRANCH  16  21
ATOM     17 CL   UNL     1      -9.259  -1.047 -16.136  0.00  0.00    -0.084 Cl
ATOM     18  C   UNL     1     -10.431   0.141 -16.555  0.00  0.00    +0.041 A 
ATOM     19  C   UNL     1     -10.024   1.441 -16.854  0.00  0.00    +0.023 A 
ATOM     20  C   UNL     1     -10.975   2.408 -17.194  0.00  0.00    +0.050 A 
ATOM     21  C   UNL     1     -12.327   2.066 -17.218  0.00  0.00    +0.155 A 
ATOM     22  C   UNL     1     -12.730   0.759 -16.940  0.00  0.00    +0.050 A 
ATOM     23  C   UNL     1     -11.781  -0.206 -16.599  0.00  0.00    +0.023 A 
ENDBRANCH  16  21
ENDBRANCH   1  16
TORSDOF 5
ENDMDL
MODEL 5
REMARK VINA RESULT:      -7.0      1.951      3.337
REMARK  Name = min_compound996.pdb
REMARK  5 active torsions:
REMARK  status: ('A' for Active; 'I' for Inactive)
REMARK    1  A    between atoms: _2  and  _9
REMARK    2  A    between atoms: _2  and  _19
REMARK    3  A    between atoms: _10  and  _19
REMARK    4  A    between atoms: _19  and  _20
REMARK    5  A    between atoms: _19  and  _21
REMARK                            x       y       z     vdW  Elec       q    Type
REMARK                         _______ _______ _______ _____ _____    ______ ____
ROOT
ATOM      1  S   UNL     1     -15.380   3.049 -16.325  0.00  0.00    -0.013 S 
ENDROOT
BRANCH   1   2
ATOM      2  C   UNL     1     -13.700   3.603 -16.386  0.00  0.00    +0.124 A 
ATOM      3  C   UNL     1     -13.409   4.791 -17.054  0.00  0.00    +0.097 A 
ATOM      4  C   UNL     1     -12.051   5.186 -17.082  0.00  0.00    +0.002 A 
ATOM      5  C   UNL     1     -11.057   4.406 -16.463  0.00  0.00    +0.010 A 
ATOM      6  C   UNL     1     -11.387   3.225 -15.807  0.00  0.00    +0.003 A 
ATOM      7  C   UNL     1     -11.712   6.377 -17.738  0.00  0.00    +0.011 A 
ATOM      8  C   UNL     1     -12.699   7.146 -18.341  0.00  0.00    +0.020 A 
ATOM      9  C   UNL     1     -13.998   6.693 -18.269  0.00  0.00    +0.111 A 
ATOM     10  N   UNL     1     -14.358   5.547 -17.650  0.00  0.00    -0.253 NA
ATOM     11  C   UNL     1     -12.712   2.818 -15.766  0.00  0.00    +0.030 A 
ENDBRANCH   1   2
BRANCH   1  12
ATOM     12  O   UNL     1     -15.367   1.743 -15.690  0.00  0.00    -0.263 OA
ATOM     13  H   UNL     1     -14.561   1.269 -15.944  0.00  0.00    +0.244 HD
ENDBRANCH   1  12
BRANCH   1  14
ATOM     14  O   UNL     1     -15.909   3.191 -17.674  0.00  0.00    -0.263 OA
ATOM     15  H   UNL     1     -16.648   2.574 -17.798  0.00  0.00    +0.244 HD
ENDBRANCH   1  14
BRANCH   1  16
ATOM     16  O   UNL     1     -16.156   4.140 -15.388  0.00  0.00    -0.363 OA
BRANCH  16  21
ATOM     17 CL   UNL     1     -16.139   3.646  -9.541  0.00  0.00    -0.084 Cl
ATOM     18  C   UNL     1     -16.160   3.776 -11.256  0.00  0.00    +0.041 A 
ATOM     19  C   UNL     1     -17.140   3.107 -11.990  0.00  0.00    +0.023 A 
ATOM     20  C   UNL     1     -17.159   3.210 -13.383  0.00  0.00    +0.050 A 
ATOM     21  C   UNL     1     -16.186   3.972 -14.030  0.00  0.00    +0.155 A 
ATOM     22  C   UNL     1     -15.219   4.658 -13.294  0.00  0.00    +0.050 A 
ATOM     23  C   UNL     1     -15.200   4.554 -11.902  0.00  0.00    +0.023 A 
ENDBRANCH  16  21
ENDBRANCH   1  16
TORSDOF 5
ENDMDL
MODEL 6
REMARK VINA RESULT:      -7.0      3.418      6.487
REMARK  Name = min_compound996.pdb
REMARK  5 active torsions:
REMARK  status: ('A' for Active; 'I' for Inactive)
REMARK    1  A    between atoms: _2  and  _9
REMARK    2  A    between atoms: _2  and  _19
REMARK    3  A    between atoms: _10  and  _19
REMARK    4  A    between atoms: _19  and  _20
REMARK    5  A    between atoms: _19  and  _21
REMARK                            x       y       z     vdW  Elec       q    Type
REMARK                         _______ _______ _______ _____ _____    ______ ____
ROOT
ATOM      1  S   UNL     1     -14.733   3.351 -16.381  0.00  0.00    -0.013 S 
ENDROOT
BRANCH   1   2
ATOM      2  C   UNL     1     -15.134   4.513 -15.106  0.00  0.00    +0.124 A 
ATOM      3  C   UNL     1     -15.179   5.869 -15.424  0.00  0.00    +0.097 A 
ATOM      4  C   UNL     1     -15.494   6.758 -14.369  0.00  0.00    +0.002 A 
ATOM      5  C   UNL     1     -15.745   6.279 -13.070  0.00  0.00    +0.010 A 
ATOM      6  C   UNL     1     -15.689   4.917 -12.792  0.00  0.00    +0.003 A 
ATOM      7  C   UNL     1     -15.556   8.130 -14.644  0.00  0.00    +0.011 A 
ATOM      8  C   UNL     1     -15.314   8.595 -15.929  0.00  0.00    +0.020 A 
ATOM      9  C   UNL     1     -15.014   7.667 -16.901  0.00  0.00    +0.111 A 
ATOM     10  N   UNL     1     -14.940   6.338 -16.670  0.00  0.00    -0.253 NA
ATOM     11  C   UNL     1     -15.382   4.027 -13.810  0.00  0.00    +0.030 A 
ENDBRANCH   1   2
BRANCH   1  12
ATOM     12  O   UNL     1     -15.535   3.708 -17.538  0.00  0.00    -0.263 OA
ATOM     13  H   UNL     1     -15.984   4.551 -17.372  0.00  0.00    +0.244 HD
ENDBRANCH   1  12
BRANCH   1  14
ATOM     14  O   UNL     1     -14.868   2.028 -15.790  0.00  0.00    -0.263 OA
ATOM     15  H   UNL     1     -15.280   2.106 -14.915  0.00  0.00    +0.244 HD
ENDBRANCH   1  14
BRANCH   1  16
ATOM     16  O   UNL     1     -13.145   3.582 -16.685  0.00  0.00    -0.363 OA
BRANCH  16  21
ATOM     17 CL   UNL     1      -9.389  -0.902 -16.201  0.00  0.00    -0.084 Cl
ATOM     18  C   UNL     1     -10.498   0.405 -16.362  0.00  0.00    +0.041 A 
ATOM     19  C   UNL     1     -11.439   0.392 -17.391  0.00  0.00    +0.023 A 
ATOM     20  C   UNL     1     -12.340   1.452 -17.525  0.00  0.00    +0.050 A 
ATOM     21  C   UNL     1     -12.280   2.522 -16.632  0.00  0.00    +0.155 A 
ATOM     22  C   UNL     1     -11.352   2.523 -15.590  0.00  0.00    +0.050 A 
ATOM     23  C   UNL     1     -10.452   1.465 -15.458  0.00  0.00    +0.023 A 
ENDBRANCH  16  21
ENDBRANCH   1  16
TORSDOF 5
ENDMDL
MODEL 7
REMARK VINA RESULT:      -6.9     11.436     13.400
REMARK  Name = min_compound996.pdb
REMARK  5 active torsions:
REMARK  status: ('A' for Active; 'I' for Inactive)
REMARK    1  A    between atoms: _2  and  _9
REMARK    2  A    between atoms: _2  and  _19
REMARK    3  A    between atoms: _10  and  _19
REMARK    4  A    between atoms: _19  and  _20
REMARK    5  A    between atoms: _19  and  _21
REMARK                            x       y       z     vdW  Elec       q    Type
REMARK                         _______ _______ _______ _____ _____    ______ ____
ROOT
ATOM      1  S   UNL     1     -16.491  -1.384  -2.704  0.00  0.00    -0.013 S 
ENDROOT
BRANCH   1   2
ATOM      2  C   UNL     1     -15.492  -0.378  -3.765  0.00  0.00    +0.124 A 
ATOM      3  C   UNL     1     -15.852  -0.253  -5.106  0.00  0.00    +0.097 A 
ATOM      4  C   UNL     1     -15.017   0.553  -5.914  0.00  0.00    +0.002 A 
ATOM      5  C   UNL     1     -13.883   1.190  -5.376  0.00  0.00    +0.010 A 
ATOM      6  C   UNL     1     -13.556   1.040  -4.032  0.00  0.00    +0.003 A 
ATOM      7  C   UNL     1     -15.344   0.711  -7.268  0.00  0.00    +0.011 A 
ATOM      8  C   UNL     1     -16.467   0.087  -7.791  0.00  0.00    +0.020 A 
ATOM      9  C   UNL     1     -17.229  -0.681  -6.939  0.00  0.00    +0.111 A 
ATOM     10  N   UNL     1     -16.940  -0.860  -5.631  0.00  0.00    -0.253 NA
ATOM     11  C   UNL     1     -14.360   0.254  -3.220  0.00  0.00    +0.030 A 
ENDBRANCH   1   2
BRANCH   1  12
ATOM     12  O   UNL     1     -16.634  -2.670  -3.361  0.00  0.00    -0.263 OA
ATOM     13  H   UNL     1     -15.798  -3.158  -3.302  0.00  0.00    +0.244 HD
ENDBRANCH   1  12
BRANCH   1  14
ATOM     14  O   UNL     1     -17.675  -0.598  -2.388  0.00  0.00    -0.263 OA
ATOM     15  H   UNL     1     -17.433   0.339  -2.323  0.00  0.00    +0.244 HD
ENDBRANCH   1  14
BRANCH   1  16
ATOM     16  O   UNL     1     -15.631  -1.532  -1.323  0.00  0.00    -0.363 OA
BRANCH  16  21
ATOM     17 CL   UNL     1     -12.983  -6.600   0.001  0.00  0.00    -0.084 Cl
ATOM     18  C   UNL     1     -13.777  -5.121  -0.376  0.00  0.00    +0.041 A 
ATOM     19  C   UNL     1     -15.017  -4.835   0.195  0.00  0.00    +0.023 A 
ATOM     20  C   UNL     1     -15.665  -3.635  -0.111  0.00  0.00    +0.050 A 
ATOM     21  C   UNL     1     -15.069  -2.737  -0.997  0.00  0.00    +0.155 A 
ATOM     22  C   UNL     1     -13.818  -3.014  -1.550  0.00  0.00    +0.050 A 
ATOM     23  C   UNL     1     -13.173  -4.214  -1.246  0.00  0.00    +0.023 A 
ENDBRANCH  16  21
ENDBRANCH   1  16
TORSDOF 5
ENDMDL
MODEL 8
REMARK VINA RESULT:      -6.9      4.206      4.627
REMARK  Name = min_compound996.pdb
REMARK  5 active torsions:
REMARK  status: ('A' for Active; 'I' for Inactive)
REMARK    1  A    between atoms: _2  and  _9
REMARK    2  A    between atoms: _2  and  _19
REMARK    3  A    between atoms: _10  and  _19
REMARK    4  A    between atoms: _19  and  _20
REMARK    5  A    between atoms: _19  and  _21
REMARK                            x       y       z     vdW  Elec       q    Type
REMARK                         _______ _______ _______ _____ _____    ______ ____
ROOT
ATOM      1  S   UNL     1     -13.396   4.093 -18.677  0.00  0.00    -0.013 S 
ENDROOT
BRANCH   1   2
ATOM      2  C   UNL     1     -12.051   3.818 -17.557  0.00  0.00    +0.124 A 
ATOM      3  C   UNL     1     -11.768   2.514 -17.156  0.00  0.00    +0.097 A 
ATOM      4  C   UNL     1     -10.691   2.347 -16.254  0.00  0.00    +0.002 A 
ATOM      5  C   UNL     1      -9.954   3.454 -15.794  0.00  0.00    +0.010 A 
ATOM      6  C   UNL     1     -10.268   4.742 -16.218  0.00  0.00    +0.003 A 
ATOM      7  C   UNL     1     -10.368   1.053 -15.827  0.00  0.00    +0.011 A 
ATOM      8  C   UNL     1     -11.095  -0.035 -16.289  0.00  0.00    +0.020 A 
ATOM      9  C   UNL     1     -12.128   0.209 -17.166  0.00  0.00    +0.111 A 
ATOM     10  N   UNL     1     -12.471   1.444 -17.593  0.00  0.00    -0.253 NA
ATOM     11  C   UNL     1     -11.320   4.929 -17.102  0.00  0.00    +0.030 A 
ENDBRANCH   1   2
BRANCH   1  12
ATOM     12  O   UNL     1     -14.616   3.987 -17.898  0.00  0.00    -0.263 OA
ATOM     13  H   UNL     1     -14.567   4.587 -17.138  0.00  0.00    +0.244 HD
ENDBRANCH   1  12
BRANCH   1  14
ATOM     14  O   UNL     1     -13.180   3.200 -19.806  0.00  0.00    -0.263 OA
ATOM     15  H   UNL     1     -13.391   3.665 -20.630  0.00  0.00    +0.244 HD
ENDBRANCH   1  14
BRANCH   1  16
ATOM     16  O   UNL     1     -13.190   5.618 -19.225  0.00  0.00    -0.363 OA
BRANCH  16  21
ATOM     17 CL   UNL     1     -16.878   9.892 -17.625  0.00  0.00    -0.084 Cl
ATOM     18  C   UNL     1     -15.810   8.634 -18.111  0.00  0.00    +0.041 A 
ATOM     19  C   UNL     1     -16.039   7.954 -19.307  0.00  0.00    +0.023 A 
ATOM     20  C   UNL     1     -15.174   6.931 -19.704  0.00  0.00    +0.050 A 
ATOM     21  C   UNL     1     -14.093   6.590 -18.891  0.00  0.00    +0.155 A 
ATOM     22  C   UNL     1     -13.853   7.286 -17.705  0.00  0.00    +0.050 A 
ATOM     23  C   UNL     1     -14.718   8.306 -17.308  0.00  0.00    +0.023 A 
ENDBRANCH  16  21
ENDBRANCH   1  16
TORSDOF 5
ENDMDL
MODEL 9
REMARK VINA RESULT:      -6.8      4.803      6.257
REMARK  Name = min_compound996.pdb
REMARK  5 active torsions:
REMARK  status: ('A' for Active; 'I' for Inactive)
REMARK    1  A    between atoms: _2  and  _9
REMARK    2  A    between atoms: _2  and  _19
REMARK    3  A    between atoms: _10  and  _19
REMARK    4  A    between atoms: _19  and  _20
REMARK    5  A    between atoms: _19  and  _21
REMARK                            x       y       z     vdW  Elec       q    Type
REMARK                         _______ _______ _______ _____ _____    ______ ____
ROOT
ATOM      1  S   UNL     1     -13.633   3.908 -18.521  0.00  0.00    -0.013 S 
ENDROOT
BRANCH   1   2
ATOM      2  C   UNL     1     -12.222   3.710 -17.469  0.00  0.00    +0.124 A 
ATOM      3  C   UNL     1     -11.836   2.423 -17.100  0.00  0.00    +0.097 A 
ATOM      4  C   UNL     1     -10.709   2.317 -16.251  0.00  0.00    +0.002 A 
ATOM      5  C   UNL     1     -10.024   3.465 -15.811  0.00  0.00    +0.010 A 
ATOM      6  C   UNL     1     -10.441   4.733 -16.201  0.00  0.00    +0.003 A 
ATOM      7  C   UNL     1     -10.282   1.042 -15.858  0.00  0.00    +0.011 A 
ATOM      8  C   UNL     1     -10.957  -0.087 -16.302  0.00  0.00    +0.020 A 
ATOM      9  C   UNL     1     -12.045   0.099 -17.126  0.00  0.00    +0.111 A 
ATOM     10  N   UNL     1     -12.488   1.314 -17.519  0.00  0.00    -0.253 NA
ATOM     11  C   UNL     1     -11.544   4.861 -17.033  0.00  0.00    +0.030 A 
ENDBRANCH   1   2
BRANCH   1  12
ATOM     12  O   UNL     1     -14.768   3.354 -17.806  0.00  0.00    -0.263 OA
ATOM     13  H   UNL     1     -14.830   3.764 -16.930  0.00  0.00    +0.244 HD
ENDBRANCH   1  12
BRANCH   1  14
ATOM     14  O   UNL     1     -13.259   3.362 -19.817  0.00  0.00    -0.263 OA
ATOM     15  H   UNL     1     -13.601   3.937 -20.520  0.00  0.00    +0.244 HD
ENDBRANCH   1  14
BRANCH   1  16
ATOM     16  O   UNL     1     -13.800   5.522 -18.710  0.00  0.00    -0.363 OA
BRANCH  16  21
ATOM     17 CL   UNL     1     -11.665   8.252 -23.446  0.00  0.00    -0.084 Cl
ATOM     18  C   UNL     1     -12.271   7.451 -22.049  0.00  0.00    +0.041 A 
ATOM     19  C   UNL     1     -11.422   7.200 -20.971  0.00  0.00    +0.023 A 
ATOM     20  C   UNL     1     -11.911   6.548 -19.836  0.00  0.00    +0.050 A 
ATOM     21  C   UNL     1     -13.245   6.142 -19.797  0.00  0.00    +0.155 A 
ATOM     22  C   UNL     1     -14.098   6.413 -20.866  0.00  0.00    +0.050 A 
ATOM     23  C   UNL     1     -13.609   7.062 -22.001  0.00  0.00    +0.023 A 
ENDBRANCH  16  21
ENDBRANCH   1  16
TORSDOF 5
ENDMDL
