MODEL 1
REMARK VINA RESULT:      -7.6      0.000      0.000
REMARK  Name = min_compound960.pdb
REMARK  4 active torsions:
REMARK  status: ('A' for Active; 'I' for Inactive)
REMARK    1  A    between atoms: _1  and  _11
REMARK    2  A    between atoms: _9  and  _14
REMARK    3  A    between atoms: _10  and  _13
REMARK    4  A    between atoms: _11  and  _12
REMARK                            x       y       z     vdW  Elec       q    Type
REMARK                         _______ _______ _______ _____ _____    ______ ____
ROOT
ATOM      1  C   UNL     1     -13.444   7.009 -17.714  0.00  0.00    +0.096 A 
ATOM      2  N   UNL     1     -12.302   7.594 -18.111  0.00  0.00    -0.082 NA
ATOM      3  O   UNL     1     -11.326   6.615 -18.053  0.00  0.00    -0.354 OA
ATOM      4  C   UNL     1     -11.873   5.446 -17.622  0.00  0.00    +0.175 A 
ATOM      5  C   UNL     1     -11.221   4.212 -17.432  0.00  0.00    +0.076 A 
ATOM      6  C   UNL     1     -11.979   3.193 -16.979  0.00  0.00    +0.055 A 
ATOM      7  N   UNL     1     -13.355   3.345 -16.710  0.00  0.00    -0.310 N 
ATOM      8  C   UNL     1     -14.124   2.228 -16.171  0.00  0.00    +0.152 C 
ATOM      9  C   UNL     1     -14.047   4.563 -16.931  0.00  0.00    +0.264 A 
ATOM     10  O   UNL     1     -15.252   4.703 -16.747  0.00  0.00    -0.267 OA
ATOM     11  C   UNL     1     -13.217   5.652 -17.397  0.00  0.00    +0.109 A 
ENDROOT
BRANCH   6  12
ATOM     12  C   UNL     1     -11.315   1.891 -16.793  0.00  0.00    -0.001 A 
ATOM     13  C   UNL     1     -11.338   0.941 -17.826  0.00  0.00    +0.010 A 
ATOM     14  C   UNL     1     -10.699  -0.289 -17.664  0.00  0.00    +0.001 A 
ATOM     15  C   UNL     1     -10.035  -0.580 -16.473  0.00  0.00    +0.000 A 
ATOM     16  C   UNL     1     -10.008   0.358 -15.442  0.00  0.00    +0.001 A 
ATOM     17  C   UNL     1     -10.640   1.595 -15.603  0.00  0.00    +0.010 A 
ENDBRANCH   6  12
BRANCH   1  18
ATOM     18  C   UNL     1     -14.701   7.814 -17.705  0.00  0.00    +0.056 C 
ATOM     19  C   UNL     1     -15.103   8.343 -16.337  0.00  0.00    +0.010 C 
ENDBRANCH   1  18
TORSDOF 2
ENDMDL
MODEL 2
REMARK VINA RESULT:      -6.8      2.255      2.818
REMARK  Name = min_compound960.pdb
REMARK  4 active torsions:
REMARK  status: ('A' for Active; 'I' for Inactive)
REMARK    1  A    between atoms: _1  and  _11
REMARK    2  A    between atoms: _9  and  _14
REMARK    3  A    between atoms: _10  and  _13
REMARK    4  A    between atoms: _11  and  _12
REMARK                            x       y       z     vdW  Elec       q    Type
REMARK                         _______ _______ _______ _____ _____    ______ ____
ROOT
ATOM      1  C   UNL     1     -14.878   4.910 -19.640  0.00  0.00    +0.096 A 
ATOM      2  N   UNL     1     -15.211   4.197 -20.729  0.00  0.00    -0.082 NA
ATOM      3  O   UNL     1     -14.519   3.003 -20.636  0.00  0.00    -0.354 OA
ATOM      4  C   UNL     1     -13.771   2.993 -19.501  0.00  0.00    +0.175 A 
ATOM      5  C   UNL     1     -12.928   1.963 -19.036  0.00  0.00    +0.076 A 
ATOM      6  C   UNL     1     -12.273   2.196 -17.881  0.00  0.00    +0.055 A 
ATOM      7  N   UNL     1     -12.419   3.402 -17.166  0.00  0.00    -0.310 N 
ATOM      8  C   UNL     1     -11.649   3.630 -15.948  0.00  0.00    +0.152 C 
ATOM      9  C   UNL     1     -13.290   4.440 -17.587  0.00  0.00    +0.264 A 
ATOM     10  O   UNL     1     -13.467   5.477 -16.957  0.00  0.00    -0.267 OA
ATOM     11  C   UNL     1     -13.970   4.185 -18.838  0.00  0.00    +0.109 A 
ENDROOT
BRANCH   6  12
ATOM     12  C   UNL     1     -11.403   1.120 -17.372  0.00  0.00    -0.001 A 
ATOM     13  C   UNL     1     -11.962   0.048 -16.660  0.00  0.00    +0.010 A 
ATOM     14  C   UNL     1     -11.147  -0.982 -16.187  0.00  0.00    +0.001 A 
ATOM     15  C   UNL     1      -9.773  -0.949 -16.421  0.00  0.00    +0.000 A 
ATOM     16  C   UNL     1      -9.211   0.113 -17.128  0.00  0.00    +0.001 A 
ATOM     17  C   UNL     1     -10.024   1.143 -17.609  0.00  0.00    +0.010 A 
ENDBRANCH   6  12
BRANCH   1  18
ATOM     18  C   UNL     1     -15.502   6.250 -19.438  0.00  0.00    +0.056 C 
ATOM     19  C   UNL     1     -15.178   7.269 -20.520  0.00  0.00    +0.010 C 
ENDBRANCH   1  18
TORSDOF 2
ENDMDL
MODEL 3
REMARK VINA RESULT:      -6.8      1.431      2.746
REMARK  Name = min_compound960.pdb
REMARK  4 active torsions:
REMARK  status: ('A' for Active; 'I' for Inactive)
REMARK    1  A    between atoms: _1  and  _11
REMARK    2  A    between atoms: _9  and  _14
REMARK    3  A    between atoms: _10  and  _13
REMARK    4  A    between atoms: _11  and  _12
REMARK                            x       y       z     vdW  Elec       q    Type
REMARK                         _______ _______ _______ _____ _____    ______ ____
ROOT
ATOM      1  C   UNL     1     -15.691   5.913 -16.079  0.00  0.00    +0.096 A 
ATOM      2  N   UNL     1     -16.651   5.208 -15.459  0.00  0.00    -0.082 NA
ATOM      3  O   UNL     1     -16.142   3.934 -15.283  0.00  0.00    -0.354 OA
ATOM      4  C   UNL     1     -14.884   3.867 -15.795  0.00  0.00    +0.175 A 
ATOM      5  C   UNL     1     -14.021   2.752 -15.812  0.00  0.00    +0.076 A 
ATOM      6  C   UNL     1     -12.819   2.930 -16.394  0.00  0.00    +0.055 A 
ATOM      7  N   UNL     1     -12.433   4.164 -16.956  0.00  0.00    -0.310 N 
ATOM      8  C   UNL     1     -11.142   4.294 -17.623  0.00  0.00    +0.152 C 
ATOM      9  C   UNL     1     -13.263   5.314 -16.918  0.00  0.00    +0.264 A 
ATOM     10  O   UNL     1     -12.928   6.408 -17.360  0.00  0.00    -0.267 OA
ATOM     11  C   UNL     1     -14.557   5.103 -16.309  0.00  0.00    +0.109 A 
ENDROOT
BRANCH   6  12
ATOM     12  C   UNL     1     -11.898   1.779 -16.402  0.00  0.00    -0.001 A 
ATOM     13  C   UNL     1     -12.038   0.779 -17.376  0.00  0.00    +0.010 A 
ATOM     14  C   UNL     1     -11.161  -0.307 -17.399  0.00  0.00    +0.001 A 
ATOM     15  C   UNL     1     -10.141  -0.402 -16.454  0.00  0.00    +0.000 A 
ATOM     16  C   UNL     1      -9.995   0.589 -15.484  0.00  0.00    +0.001 A 
ATOM     17  C   UNL     1     -10.866   1.682 -15.461  0.00  0.00    +0.010 A 
ENDBRANCH   6  12
BRANCH   1  18
ATOM     18  C   UNL     1     -15.934   7.355 -16.377  0.00  0.00    +0.056 C 
ATOM     19  C   UNL     1     -15.244   8.324 -15.430  0.00  0.00    +0.010 C 
ENDBRANCH   1  18
TORSDOF 2
ENDMDL
MODEL 4
REMARK VINA RESULT:      -6.4      2.182      6.365
REMARK  Name = min_compound960.pdb
REMARK  4 active torsions:
REMARK  status: ('A' for Active; 'I' for Inactive)
REMARK    1  A    between atoms: _1  and  _11
REMARK    2  A    between atoms: _9  and  _14
REMARK    3  A    between atoms: _10  and  _13
REMARK    4  A    between atoms: _11  and  _12
REMARK                            x       y       z     vdW  Elec       q    Type
REMARK                         _______ _______ _______ _____ _____    ______ ____
ROOT
ATOM      1  C   UNL     1     -10.999   1.047 -16.770  0.00  0.00    +0.096 A 
ATOM      2  N   UNL     1     -10.454   1.274 -15.564  0.00  0.00    -0.082 NA
ATOM      3  O   UNL     1     -10.975   2.477 -15.124  0.00  0.00    -0.354 OA
ATOM      4  C   UNL     1     -11.828   2.977 -16.059  0.00  0.00    +0.175 A 
ATOM      5  C   UNL     1     -12.566   4.176 -15.995  0.00  0.00    +0.076 A 
ATOM      6  C   UNL     1     -13.336   4.467 -17.062  0.00  0.00    +0.055 A 
ATOM      7  N   UNL     1     -13.410   3.620 -18.187  0.00  0.00    -0.310 N 
ATOM      8  C   UNL     1     -14.217   4.003 -19.340  0.00  0.00    +0.152 C 
ATOM      9  C   UNL     1     -12.711   2.388 -18.263  0.00  0.00    +0.264 A 
ATOM     10  O   UNL     1     -12.797   1.616 -19.211  0.00  0.00    -0.267 OA
ATOM     11  C   UNL     1     -11.873   2.100 -17.120  0.00  0.00    +0.109 A 
ENDROOT
BRANCH   6  12
ATOM     12  C   UNL     1     -14.130   5.708 -17.001  0.00  0.00    -0.001 A 
ATOM     13  C   UNL     1     -15.407   5.694 -16.421  0.00  0.00    +0.010 A 
ATOM     14  C   UNL     1     -16.158   6.868 -16.346  0.00  0.00    +0.001 A 
ATOM     15  C   UNL     1     -15.641   8.061 -16.849  0.00  0.00    +0.000 A 
ATOM     16  C   UNL     1     -14.373   8.083 -17.426  0.00  0.00    +0.001 A 
ATOM     17  C   UNL     1     -13.614   6.911 -17.497  0.00  0.00    +0.010 A 
ENDBRANCH   6  12
BRANCH   1  18
ATOM     18  C   UNL     1     -10.651  -0.212 -17.493  0.00  0.00    +0.056 C 
ATOM     19  C   UNL     1      -9.602  -1.069 -16.803  0.00  0.00    +0.010 C 
ENDBRANCH   1  18
TORSDOF 2
ENDMDL
MODEL 5
REMARK VINA RESULT:      -6.3      3.362      5.247
REMARK  Name = min_compound960.pdb
REMARK  4 active torsions:
REMARK  status: ('A' for Active; 'I' for Inactive)
REMARK    1  A    between atoms: _1  and  _11
REMARK    2  A    between atoms: _9  and  _14
REMARK    3  A    between atoms: _10  and  _13
REMARK    4  A    between atoms: _11  and  _12
REMARK                            x       y       z     vdW  Elec       q    Type
REMARK                         _______ _______ _______ _____ _____    ______ ____
ROOT
ATOM      1  C   UNL     1     -12.578   4.948 -17.976  0.00  0.00    +0.096 A 
ATOM      2  N   UNL     1     -11.740   3.909 -17.823  0.00  0.00    -0.082 NA
ATOM      3  O   UNL     1     -12.101   3.292 -16.639  0.00  0.00    -0.354 OA
ATOM      4  C   UNL     1     -13.148   3.954 -16.076  0.00  0.00    +0.175 A 
ATOM      5  C   UNL     1     -13.814   3.646 -14.873  0.00  0.00    +0.076 A 
ATOM      6  C   UNL     1     -14.821   4.466 -14.514  0.00  0.00    +0.055 A 
ATOM      7  N   UNL     1     -15.199   5.576 -15.297  0.00  0.00    -0.310 N 
ATOM      8  C   UNL     1     -16.261   6.467 -14.841  0.00  0.00    +0.152 C 
ATOM      9  C   UNL     1     -14.575   5.888 -16.532  0.00  0.00    +0.264 A 
ATOM     10  O   UNL     1     -14.919   6.821 -17.250  0.00  0.00    -0.267 OA
ATOM     11  C   UNL     1     -13.484   5.012 -16.894  0.00  0.00    +0.109 A 
ENDROOT
BRANCH   6  12
ATOM     12  C   UNL     1     -15.540   4.145 -13.268  0.00  0.00    -0.001 A 
ATOM     13  C   UNL     1     -16.661   3.302 -13.305  0.00  0.00    +0.010 A 
ATOM     14  C   UNL     1     -17.338   2.981 -12.127  0.00  0.00    +0.001 A 
ATOM     15  C   UNL     1     -16.902   3.498 -10.907  0.00  0.00    +0.000 A 
ATOM     16  C   UNL     1     -15.788   4.335 -10.863  0.00  0.00    +0.001 A 
ATOM     17  C   UNL     1     -15.103   4.654 -12.039  0.00  0.00    +0.010 A 
ENDBRANCH   6  12
BRANCH   1  18
ATOM     18  C   UNL     1     -12.458   5.797 -19.197  0.00  0.00    +0.056 C 
ATOM     19  C   UNL     1     -11.842   7.166 -18.958  0.00  0.00    +0.010 C 
ENDBRANCH   1  18
TORSDOF 2
ENDMDL
MODEL 6
REMARK VINA RESULT:      -6.0      1.436      2.039
REMARK  Name = min_compound960.pdb
REMARK  4 active torsions:
REMARK  status: ('A' for Active; 'I' for Inactive)
REMARK    1  A    between atoms: _1  and  _11
REMARK    2  A    between atoms: _9  and  _14
REMARK    3  A    between atoms: _10  and  _13
REMARK    4  A    between atoms: _11  and  _12
REMARK                            x       y       z     vdW  Elec       q    Type
REMARK                         _______ _______ _______ _____ _____    ______ ____
ROOT
ATOM      1  C   UNL     1     -15.207   7.596 -16.830  0.00  0.00    +0.096 A 
ATOM      2  N   UNL     1     -14.318   8.255 -17.592  0.00  0.00    -0.082 NA
ATOM      3  O   UNL     1     -13.285   7.368 -17.834  0.00  0.00    -0.354 OA
ATOM      4  C   UNL     1     -13.543   6.182 -17.220  0.00  0.00    +0.175 A 
ATOM      5  C   UNL     1     -12.746   5.021 -17.225  0.00  0.00    +0.076 A 
ATOM      6  C   UNL     1     -13.212   3.967 -16.524  0.00  0.00    +0.055 A 
ATOM      7  N   UNL     1     -14.434   4.014 -15.823  0.00  0.00    -0.310 N 
ATOM      8  C   UNL     1     -14.871   2.867 -15.036  0.00  0.00    +0.152 C 
ATOM      9  C   UNL     1     -15.277   5.155 -15.834  0.00  0.00    +0.264 A 
ATOM     10  O   UNL     1     -16.365   5.201 -15.269  0.00  0.00    -0.267 OA
ATOM     11  C   UNL     1     -14.755   6.283 -16.572  0.00  0.00    +0.109 A 
ENDROOT
BRANCH   6  12
ATOM     12  C   UNL     1     -12.398   2.738 -16.536  0.00  0.00    -0.001 A 
ATOM     13  C   UNL     1     -11.343   2.590 -15.623  0.00  0.00    +0.010 A 
ATOM     14  C   UNL     1     -10.576   1.423 -15.618  0.00  0.00    +0.001 A 
ATOM     15  C   UNL     1     -10.857   0.399 -16.521  0.00  0.00    +0.000 A 
ATOM     16  C   UNL     1     -11.905   0.538 -17.430  0.00  0.00    +0.001 A 
ATOM     17  C   UNL     1     -12.679   1.702 -17.435  0.00  0.00    +0.010 A 
ENDBRANCH   6  12
BRANCH   1  18
ATOM     18  C   UNL     1     -16.466   8.290 -16.428  0.00  0.00    +0.056 C 
ATOM     19  C   UNL     1     -16.315   9.245 -15.253  0.00  0.00    +0.010 C 
ENDBRANCH   1  18
TORSDOF 2
ENDMDL
MODEL 7
REMARK VINA RESULT:      -5.9      7.772      9.443
REMARK  Name = min_compound960.pdb
REMARK  4 active torsions:
REMARK  status: ('A' for Active; 'I' for Inactive)
REMARK    1  A    between atoms: _1  and  _11
REMARK    2  A    between atoms: _9  and  _14
REMARK    3  A    between atoms: _10  and  _13
REMARK    4  A    between atoms: _11  and  _12
REMARK                            x       y       z     vdW  Elec       q    Type
REMARK                         _______ _______ _______ _____ _____    ______ ____
ROOT
ATOM      1  C   UNL     1     -17.562   5.029  -6.758  0.00  0.00    +0.096 A 
ATOM      2  N   UNL     1     -17.303   3.805  -6.268  0.00  0.00    -0.082 NA
ATOM      3  O   UNL     1     -16.900   3.036  -7.344  0.00  0.00    -0.354 OA
ATOM      4  C   UNL     1     -16.917   3.786  -8.478  0.00  0.00    +0.175 A 
ATOM      5  C   UNL     1     -16.573   3.380  -9.783  0.00  0.00    +0.076 A 
ATOM      6  C   UNL     1     -16.687   4.310 -10.753  0.00  0.00    +0.055 A 
ATOM      7  N   UNL     1     -17.124   5.623 -10.486  0.00  0.00    -0.310 N 
ATOM      8  C   UNL     1     -17.282   6.579 -11.576  0.00  0.00    +0.152 C 
ATOM      9  C   UNL     1     -17.438   6.072  -9.177  0.00  0.00    +0.264 A 
ATOM     10  O   UNL     1     -17.775   7.222  -8.916  0.00  0.00    -0.267 OA
ATOM     11  C   UNL     1     -17.331   5.059  -8.151  0.00  0.00    +0.109 A 
ENDROOT
BRANCH   6  12
ATOM     12  C   UNL     1     -16.312   3.905 -12.120  0.00  0.00    -0.001 A 
ATOM     13  C   UNL     1     -17.136   3.028 -12.840  0.00  0.00    +0.010 A 
ATOM     14  C   UNL     1     -16.795   2.652 -14.141  0.00  0.00    +0.001 A 
ATOM     15  C   UNL     1     -15.632   3.147 -14.730  0.00  0.00    +0.000 A 
ATOM     16  C   UNL     1     -14.809   4.020 -14.020  0.00  0.00    +0.001 A 
ATOM     17  C   UNL     1     -15.150   4.405 -12.720  0.00  0.00    +0.010 A 
ENDBRANCH   6  12
BRANCH   1  18
ATOM     18  C   UNL     1     -17.991   6.106  -5.817  0.00  0.00    +0.056 C 
ATOM     19  C   UNL     1     -17.036   6.353  -4.660  0.00  0.00    +0.010 C 
ENDBRANCH   1  18
TORSDOF 2
ENDMDL
MODEL 8
REMARK VINA RESULT:      -5.7      1.704      6.556
REMARK  Name = min_compound960.pdb
REMARK  4 active torsions:
REMARK  status: ('A' for Active; 'I' for Inactive)
REMARK    1  A    between atoms: _1  and  _11
REMARK    2  A    between atoms: _9  and  _14
REMARK    3  A    between atoms: _10  and  _13
REMARK    4  A    between atoms: _11  and  _12
REMARK                            x       y       z     vdW  Elec       q    Type
REMARK                         _______ _______ _______ _____ _____    ______ ____
ROOT
ATOM      1  C   UNL     1     -11.561   1.286 -16.512  0.00  0.00    +0.096 A 
ATOM      2  N   UNL     1     -12.658   0.532 -16.330  0.00  0.00    -0.082 NA
ATOM      3  O   UNL     1     -13.740   1.371 -16.525  0.00  0.00    -0.354 OA
ATOM      4  C   UNL     1     -13.302   2.625 -16.819  0.00  0.00    +0.175 A 
ATOM      5  C   UNL     1     -14.083   3.767 -17.090  0.00  0.00    +0.076 A 
ATOM      6  C   UNL     1     -13.413   4.909 -17.341  0.00  0.00    +0.055 A 
ATOM      7  N   UNL     1     -12.004   4.968 -17.339  0.00  0.00    -0.310 N 
ATOM      8  C   UNL     1     -11.324   6.239 -17.564  0.00  0.00    +0.152 C 
ATOM      9  C   UNL     1     -11.192   3.828 -17.111  0.00  0.00    +0.264 A 
ATOM     10  O   UNL     1      -9.966   3.848 -17.150  0.00  0.00    -0.267 OA
ATOM     11  C   UNL     1     -11.924   2.615 -16.822  0.00  0.00    +0.109 A 
ENDROOT
BRANCH   6  12
ATOM     12  C   UNL     1     -14.216   6.107 -17.645  0.00  0.00    -0.001 A 
ATOM     13  C   UNL     1     -14.695   6.316 -18.947  0.00  0.00    +0.010 A 
ATOM     14  C   UNL     1     -15.468   7.441 -19.240  0.00  0.00    +0.001 A 
ATOM     15  C   UNL     1     -15.768   8.362 -18.238  0.00  0.00    +0.000 A 
ATOM     16  C   UNL     1     -15.297   8.161 -16.942  0.00  0.00    +0.001 A 
ATOM     17  C   UNL     1     -14.528   7.033 -16.642  0.00  0.00    +0.010 A 
ENDBRANCH   6  12
BRANCH   1  18
ATOM     18  C   UNL     1     -10.219   0.643 -16.401  0.00  0.00    +0.056 C 
ATOM     19  C   UNL     1     -10.061  -0.637 -17.207  0.00  0.00    +0.010 C 
ENDBRANCH   1  18
TORSDOF 2
ENDMDL
MODEL 9
REMARK VINA RESULT:      -5.7     11.587     12.706
REMARK  Name = min_compound960.pdb
REMARK  4 active torsions:
REMARK  status: ('A' for Active; 'I' for Inactive)
REMARK    1  A    between atoms: _1  and  _11
REMARK    2  A    between atoms: _9  and  _14
REMARK    3  A    between atoms: _10  and  _13
REMARK    4  A    between atoms: _11  and  _12
REMARK                            x       y       z     vdW  Elec       q    Type
REMARK                         _______ _______ _______ _____ _____    ______ ____
ROOT
ATOM      1  C   UNL     1     -18.235   5.961  -6.514  0.00  0.00    +0.096 A 
ATOM      2  N   UNL     1     -18.170   6.791  -5.460  0.00  0.00    -0.082 NA
ATOM      3  O   UNL     1     -17.501   6.101  -4.465  0.00  0.00    -0.354 OA
ATOM      4  C   UNL     1     -17.167   4.860  -4.911  0.00  0.00    +0.175 A 
ATOM      5  C   UNL     1     -16.476   3.852  -4.210  0.00  0.00    +0.076 A 
ATOM      6  C   UNL     1     -16.275   2.691  -4.866  0.00  0.00    +0.055 A 
ATOM      7  N   UNL     1     -16.725   2.489  -6.187  0.00  0.00    -0.310 N 
ATOM      8  C   UNL     1     -16.531   1.197  -6.837  0.00  0.00    +0.152 C 
ATOM      9  C   UNL     1     -17.386   3.499  -6.932  0.00  0.00    +0.264 A 
ATOM     10  O   UNL     1     -17.744   3.359  -8.097  0.00  0.00    -0.267 OA
ATOM     11  C   UNL     1     -17.613   4.730  -6.209  0.00  0.00    +0.109 A 
ENDROOT
BRANCH   6  12
ATOM     12  C   UNL     1     -15.537   1.634  -4.152  0.00  0.00    -0.001 A 
ATOM     13  C   UNL     1     -14.162   1.777  -3.919  0.00  0.00    +0.010 A 
ATOM     14  C   UNL     1     -13.458   0.787  -3.230  0.00  0.00    +0.001 A 
ATOM     15  C   UNL     1     -14.122  -0.350  -2.771  0.00  0.00    +0.000 A 
ATOM     16  C   UNL     1     -15.489  -0.499  -2.999  0.00  0.00    +0.001 A 
ATOM     17  C   UNL     1     -16.199   0.493  -3.682  0.00  0.00    +0.010 A 
ENDBRANCH   6  12
BRANCH   1  18
ATOM     18  C   UNL     1     -18.878   6.442  -7.771  0.00  0.00    +0.056 C 
ATOM     19  C   UNL     1     -20.399   6.420  -7.754  0.00  0.00    +0.010 C 
ENDBRANCH   1  18
TORSDOF 2
ENDMDL
