MODEL 1
REMARK VINA RESULT:      -8.0      0.000      0.000
REMARK  Name = min_compound982.pdb
REMARK  0 active torsions:
REMARK  status: ('A' for Active; 'I' for Inactive)
REMARK                            x       y       z     vdW  Elec       q    Type
REMARK                         _______ _______ _______ _____ _____    ______ ____
ROOT
ATOM      1  C   UNL     1     -12.332   5.537 -18.085  0.00  0.00    +0.040 C 
ATOM      2  C   UNL     1     -13.487   6.210 -17.399  0.00  0.00    -0.040 A 
ATOM      3  C   UNL     1     -13.712   7.565 -17.743  0.00  0.00    +0.004 A 
ATOM      4  C   UNL     1     -14.719   8.313 -17.148  0.00  0.00    +0.000 A 
ATOM      5  C   UNL     1     -15.531   7.716 -16.205  0.00  0.00    +0.000 A 
ATOM      6  C   UNL     1     -15.331   6.373 -15.873  0.00  0.00    +0.008 A 
ATOM      7  C   UNL     1     -14.300   5.571 -16.442  0.00  0.00    +0.004 A 
ATOM      8  C   UNL     1     -14.223   4.079 -16.014  0.00  0.00    +0.168 C 
ATOM      9  C   UNL     1     -14.378   3.924 -14.475  0.00  0.00    +0.099 C 
ATOM     10  C   UNL     1     -15.769   3.431 -14.319  0.00  0.00    +0.034 C 
ATOM     11  C   UNL     1     -16.459   3.261 -13.184  0.00  0.00    +0.019 C 
ATOM     12  C   UNL     1     -16.344   3.160 -15.649  0.00  0.00    +0.336 C 
ATOM     13  O   UNL     1     -17.446   2.690 -15.870  0.00  0.00    -0.245 OA
ATOM     14  O   UNL     1     -15.432   3.505 -16.590  0.00  0.00    -0.445 OA
ATOM     15  C   UNL     1     -13.068   3.128 -16.434  0.00  0.00    +0.004 A 
ATOM     16  C   UNL     1     -13.301   1.727 -16.335  0.00  0.00    +0.008 A 
ATOM     17  C   UNL     1     -12.300   0.776 -16.539  0.00  0.00    +0.000 A 
ATOM     18  C   UNL     1     -11.018   1.189 -16.853  0.00  0.00    +0.000 A 
ATOM     19  C   UNL     1     -10.754   2.547 -16.983  0.00  0.00    +0.004 A 
ATOM     20  C   UNL     1     -11.763   3.519 -16.791  0.00  0.00    -0.040 A 
ATOM     21  C   UNL     1     -11.384   4.947 -17.056  0.00  0.00    +0.040 C 
ENDROOT
TORSDOF 0
ENDMDL
MODEL 2
REMARK VINA RESULT:      -7.6     12.637     14.496
REMARK  Name = min_compound982.pdb
REMARK  0 active torsions:
REMARK  status: ('A' for Active; 'I' for Inactive)
REMARK                            x       y       z     vdW  Elec       q    Type
REMARK                         _______ _______ _______ _____ _____    ______ ____
ROOT
ATOM      1  C   UNL     1     -17.136   1.856  -4.398  0.00  0.00    +0.040 C 
ATOM      2  C   UNL     1     -15.733   1.596  -3.927  0.00  0.00    -0.040 A 
ATOM      3  C   UNL     1     -14.841   2.694  -3.988  0.00  0.00    +0.004 A 
ATOM      4  C   UNL     1     -13.507   2.574  -3.624  0.00  0.00    +0.000 A 
ATOM      5  C   UNL     1     -13.041   1.354  -3.176  0.00  0.00    +0.000 A 
ATOM      6  C   UNL     1     -13.917   0.268  -3.092  0.00  0.00    +0.008 A 
ATOM      7  C   UNL     1     -15.288   0.338  -3.472  0.00  0.00    +0.004 A 
ATOM      8  C   UNL     1     -16.160  -0.935  -3.282  0.00  0.00    +0.168 C 
ATOM      9  C   UNL     1     -15.419  -2.205  -3.787  0.00  0.00    +0.099 C 
ATOM     10  C   UNL     1     -14.979  -2.866  -2.532  0.00  0.00    +0.034 C 
ATOM     11  C   UNL     1     -14.179  -3.931  -2.400  0.00  0.00    +0.019 C 
ATOM     12  C   UNL     1     -15.541  -2.143  -1.376  0.00  0.00    +0.336 C 
ATOM     13  O   UNL     1     -15.420  -2.461  -0.206  0.00  0.00    -0.245 OA
ATOM     14  O   UNL     1     -16.234  -1.072  -1.834  0.00  0.00    -0.445 OA
ATOM     15  C   UNL     1     -17.623  -1.052  -3.789  0.00  0.00    +0.004 A 
ATOM     16  C   UNL     1     -18.437  -2.072  -3.218  0.00  0.00    +0.008 A 
ATOM     17  C   UNL     1     -19.715  -2.375  -3.691  0.00  0.00    +0.000 A 
ATOM     18  C   UNL     1     -20.235  -1.667  -4.758  0.00  0.00    +0.000 A 
ATOM     19  C   UNL     1     -19.483  -0.648  -5.329  0.00  0.00    +0.004 A 
ATOM     20  C   UNL     1     -18.192  -0.323  -4.851  0.00  0.00    -0.040 A 
ATOM     21  C   UNL     1     -17.517   0.860  -5.480  0.00  0.00    +0.040 C 
ENDROOT
TORSDOF 0
ENDMDL
MODEL 3
REMARK VINA RESULT:      -7.6      1.281      4.615
REMARK  Name = min_compound982.pdb
REMARK  0 active torsions:
REMARK  status: ('A' for Active; 'I' for Inactive)
REMARK                            x       y       z     vdW  Elec       q    Type
REMARK                         _______ _______ _______ _____ _____    ______ ____
ROOT
ATOM      1  C   UNL     1     -11.495   5.788 -17.341  0.00  0.00    +0.040 C 
ATOM      2  C   UNL     1     -11.621   4.373 -16.852  0.00  0.00    -0.040 A 
ATOM      3  C   UNL     1     -10.465   3.565 -16.976  0.00  0.00    +0.004 A 
ATOM      4  C   UNL     1     -10.463   2.228 -16.602  0.00  0.00    +0.000 A 
ATOM      5  C   UNL     1     -11.615   1.676 -16.080  0.00  0.00    +0.000 A 
ATOM      6  C   UNL     1     -12.756   2.469 -15.933  0.00  0.00    +0.008 A 
ATOM      7  C   UNL     1     -12.812   3.838 -16.320  0.00  0.00    +0.004 A 
ATOM      8  C   UNL     1     -14.133   4.614 -16.056  0.00  0.00    +0.168 C 
ATOM      9  C   UNL     1     -15.373   3.777 -16.481  0.00  0.00    +0.099 C 
ATOM     10  C   UNL     1     -15.921   3.297 -15.187  0.00  0.00    +0.034 C 
ATOM     11  C   UNL     1     -16.914   2.422 -14.989  0.00  0.00    +0.019 C 
ATOM     12  C   UNL     1     -15.175   3.920 -14.078  0.00  0.00    +0.336 C 
ATOM     13  O   UNL     1     -15.412   3.784 -12.891  0.00  0.00    -0.245 OA
ATOM     14  O   UNL     1     -14.189   4.688 -14.602  0.00  0.00    -0.445 OA
ATOM     15  C   UNL     1     -14.390   6.061 -16.559  0.00  0.00    +0.004 A 
ATOM     16  C   UNL     1     -15.432   6.800 -15.929  0.00  0.00    +0.008 A 
ATOM     17  C   UNL     1     -15.858   8.049 -16.386  0.00  0.00    +0.000 A 
ATOM     18  C   UNL     1     -15.256   8.613 -17.496  0.00  0.00    +0.000 A 
ATOM     19  C   UNL     1     -14.220   7.935 -18.125  0.00  0.00    +0.004 A 
ATOM     20  C   UNL     1     -13.771   6.675 -17.664  0.00  0.00    -0.040 A 
ATOM     21  C   UNL     1     -12.580   6.086 -18.362  0.00  0.00    +0.040 C 
ENDROOT
TORSDOF 0
ENDMDL
MODEL 4
REMARK VINA RESULT:      -7.5      1.650      4.374
REMARK  Name = min_compound982.pdb
REMARK  0 active torsions:
REMARK  status: ('A' for Active; 'I' for Inactive)
REMARK                            x       y       z     vdW  Elec       q    Type
REMARK                         _______ _______ _______ _____ _____    ______ ____
ROOT
ATOM      1  C   UNL     1     -15.218   6.692 -16.430  0.00  0.00    +0.040 C 
ATOM      2  C   UNL     1     -13.964   6.396 -17.202  0.00  0.00    -0.040 A 
ATOM      3  C   UNL     1     -13.377   7.490 -17.882  0.00  0.00    +0.004 A 
ATOM      4  C   UNL     1     -12.241   7.341 -18.666  0.00  0.00    +0.000 A 
ATOM      5  C   UNL     1     -11.659   6.094 -18.772  0.00  0.00    +0.000 A 
ATOM      6  C   UNL     1     -12.217   5.010 -18.088  0.00  0.00    +0.008 A 
ATOM      7  C   UNL     1     -13.391   5.111 -17.289  0.00  0.00    +0.004 A 
ATOM      8  C   UNL     1     -13.875   3.834 -16.546  0.00  0.00    +0.168 C 
ATOM      9  C   UNL     1     -13.840   2.591 -17.480  0.00  0.00    +0.099 C 
ATOM     10  C   UNL     1     -12.633   1.855 -17.025  0.00  0.00    +0.034 C 
ATOM     11  C   UNL     1     -12.068   0.779 -17.585  0.00  0.00    +0.019 C 
ATOM     12  C   UNL     1     -12.085   2.510 -15.824  0.00  0.00    +0.336 C 
ATOM     13  O   UNL     1     -11.134   2.122 -15.169  0.00  0.00    -0.245 OA
ATOM     14  O   UNL     1     -12.829   3.610 -15.556  0.00  0.00    -0.445 OA
ATOM     15  C   UNL     1     -15.215   3.755 -15.764  0.00  0.00    +0.004 A 
ATOM     16  C   UNL     1     -15.358   2.708 -14.810  0.00  0.00    +0.008 A 
ATOM     17  C   UNL     1     -16.561   2.441 -14.154  0.00  0.00    +0.000 A 
ATOM     18  C   UNL     1     -17.675   3.214 -14.425  0.00  0.00    +0.000 A 
ATOM     19  C   UNL     1     -17.570   4.262 -15.332  0.00  0.00    +0.004 A 
ATOM     20  C   UNL     1     -16.354   4.549 -15.994  0.00  0.00    -0.040 A 
ATOM     21  C   UNL     1     -16.336   5.764 -16.874  0.00  0.00    +0.040 C 
ENDROOT
TORSDOF 0
ENDMDL
MODEL 5
REMARK VINA RESULT:      -7.5     12.480     14.479
REMARK  Name = min_compound982.pdb
REMARK  0 active torsions:
REMARK  status: ('A' for Active; 'I' for Inactive)
REMARK                            x       y       z     vdW  Elec       q    Type
REMARK                         _______ _______ _______ _____ _____    ______ ____
ROOT
ATOM      1  C   UNL     1     -17.529   0.955  -5.467  0.00  0.00    +0.040 C 
ATOM      2  C   UNL     1     -18.227  -0.232  -4.865  0.00  0.00    -0.040 A 
ATOM      3  C   UNL     1     -19.497  -0.548  -5.406  0.00  0.00    +0.004 A 
ATOM      4  C   UNL     1     -20.264  -1.593  -4.909  0.00  0.00    +0.000 A 
ATOM      5  C   UNL     1     -19.767  -2.355  -3.870  0.00  0.00    +0.000 A 
ATOM      6  C   UNL     1     -18.506  -2.065  -3.342  0.00  0.00    +0.008 A 
ATOM      7  C   UNL     1     -17.692  -0.991  -3.805  0.00  0.00    +0.004 A 
ATOM      8  C   UNL     1     -16.290  -0.813  -3.159  0.00  0.00    +0.168 C 
ATOM      9  C   UNL     1     -16.362  -0.939  -1.611  0.00  0.00    +0.099 C 
ATOM     10  C   UNL     1     -15.814  -2.295  -1.352  0.00  0.00    +0.034 C 
ATOM     11  C   UNL     1     -15.777  -2.958  -0.190  0.00  0.00    +0.019 C 
ATOM     12  C   UNL     1     -15.308  -2.867  -2.614  0.00  0.00    +0.336 C 
ATOM     13  O   UNL     1     -14.743  -3.938  -2.737  0.00  0.00    -0.245 OA
ATOM     14  O   UNL     1     -15.562  -1.989  -3.615  0.00  0.00    -0.445 OA
ATOM     15  C   UNL     1     -15.360   0.396  -3.454  0.00  0.00    +0.004 A 
ATOM     16  C   UNL     1     -13.979   0.254  -3.140  0.00  0.00    +0.008 A 
ATOM     17  C   UNL     1     -13.070   1.312  -3.219  0.00  0.00    +0.000 A 
ATOM     18  C   UNL     1     -13.509   2.561  -3.620  0.00  0.00    +0.000 A 
ATOM     19  C   UNL     1     -14.845   2.735  -3.959  0.00  0.00    +0.004 A 
ATOM     20  C   UNL     1     -15.771   1.668  -3.895  0.00  0.00    -0.040 A 
ATOM     21  C   UNL     1     -17.162   1.952  -4.380  0.00  0.00    +0.040 C 
ENDROOT
TORSDOF 0
ENDMDL
MODEL 6
REMARK VINA RESULT:      -7.3      8.537     12.089
REMARK  Name = min_compound982.pdb
REMARK  0 active torsions:
REMARK  status: ('A' for Active; 'I' for Inactive)
REMARK                            x       y       z     vdW  Elec       q    Type
REMARK                         _______ _______ _______ _____ _____    ______ ____
ROOT
ATOM      1  C   UNL     1     -14.995  -0.299  -7.077  0.00  0.00    +0.040 C 
ATOM      2  C   UNL     1     -15.142  -0.278  -5.582  0.00  0.00    -0.040 A 
ATOM      3  C   UNL     1     -14.517  -1.337  -4.879  0.00  0.00    +0.004 A 
ATOM      4  C   UNL     1     -14.615  -1.458  -3.500  0.00  0.00    +0.000 A 
ATOM      5  C   UNL     1     -15.328  -0.511  -2.792  0.00  0.00    +0.000 A 
ATOM      6  C   UNL     1     -15.931   0.550  -3.473  0.00  0.00    +0.008 A 
ATOM      7  C   UNL     1     -15.875   0.705  -4.888  0.00  0.00    +0.004 A 
ATOM      8  C   UNL     1     -16.553   1.959  -5.508  0.00  0.00    +0.168 C 
ATOM      9  C   UNL     1     -17.960   2.202  -4.893  0.00  0.00    +0.099 C 
ATOM     10  C   UNL     1     -17.735   3.338  -3.962  0.00  0.00    +0.034 C 
ATOM     11  C   UNL     1     -18.594   3.857  -3.077  0.00  0.00    +0.019 C 
ATOM     12  C   UNL     1     -16.356   3.836  -4.123  0.00  0.00    +0.336 C 
ATOM     13  O   UNL     1     -15.872   4.796  -3.551  0.00  0.00    -0.245 OA
ATOM     14  O   UNL     1     -15.720   3.056  -5.031  0.00  0.00    -0.445 OA
ATOM     15  C   UNL     1     -16.702   2.182  -7.038  0.00  0.00    +0.004 A 
ATOM     16  C   UNL     1     -16.956   3.509  -7.487  0.00  0.00    +0.008 A 
ATOM     17  C   UNL     1     -17.256   3.815  -8.816  0.00  0.00    +0.000 A 
ATOM     18  C   UNL     1     -17.311   2.802  -9.756  0.00  0.00    +0.000 A 
ATOM     19  C   UNL     1     -17.044   1.496  -9.362  0.00  0.00    +0.004 A 
ATOM     20  C   UNL     1     -16.728   1.176  -8.022  0.00  0.00    -0.040 A 
ATOM     21  C   UNL     1     -16.362  -0.252  -7.737  0.00  0.00    +0.040 C 
ENDROOT
TORSDOF 0
ENDMDL
MODEL 7
REMARK VINA RESULT:      -7.2      9.713     12.806
REMARK  Name = min_compound982.pdb
REMARK  0 active torsions:
REMARK  status: ('A' for Active; 'I' for Inactive)
REMARK                            x       y       z     vdW  Elec       q    Type
REMARK                         _______ _______ _______ _____ _____    ______ ____
ROOT
ATOM      1  C   UNL     1     -14.112  -0.032  -5.688  0.00  0.00    +0.040 C 
ATOM      2  C   UNL     1     -15.232   0.681  -6.393  0.00  0.00    -0.040 A 
ATOM      3  C   UNL     1     -14.878   1.391  -7.566  0.00  0.00    +0.004 A 
ATOM      4  C   UNL     1     -15.811   2.127  -8.284  0.00  0.00    +0.000 A 
ATOM      5  C   UNL     1     -17.121   2.154  -7.852  0.00  0.00    +0.000 A 
ATOM      6  C   UNL     1     -17.486   1.439  -6.708  0.00  0.00    +0.008 A 
ATOM      7  C   UNL     1     -16.562   0.687  -5.928  0.00  0.00    +0.004 A 
ATOM      8  C   UNL     1     -17.115  -0.098  -4.705  0.00  0.00    +0.168 C 
ATOM      9  C   UNL     1     -18.096   0.774  -3.871  0.00  0.00    +0.099 C 
ATOM     10  C   UNL     1     -19.430   0.244  -4.247  0.00  0.00    +0.034 C 
ATOM     11  C   UNL     1     -20.632   0.732  -3.918  0.00  0.00    +0.019 C 
ATOM     12  C   UNL     1     -19.260  -0.944  -5.105  0.00  0.00    +0.336 C 
ATOM     13  O   UNL     1     -20.155  -1.649  -5.535  0.00  0.00    -0.245 OA
ATOM     14  O   UNL     1     -17.936  -1.133  -5.319  0.00  0.00    -0.445 OA
ATOM     15  C   UNL     1     -16.209  -0.835  -3.681  0.00  0.00    +0.004 A 
ATOM     16  C   UNL     1     -16.815  -1.831  -2.865  0.00  0.00    +0.008 A 
ATOM     17  C   UNL     1     -16.147  -2.458  -1.811  0.00  0.00    +0.000 A 
ATOM     18  C   UNL     1     -14.838  -2.112  -1.529  0.00  0.00    +0.000 A 
ATOM     19  C   UNL     1     -14.202  -1.160  -2.317  0.00  0.00    +0.004 A 
ATOM     20  C   UNL     1     -14.865  -0.529  -3.395  0.00  0.00    -0.040 A 
ATOM     21  C   UNL     1     -14.046   0.407  -4.235  0.00  0.00    +0.040 C 
ENDROOT
TORSDOF 0
ENDMDL
MODEL 8
REMARK VINA RESULT:      -7.2      2.494      4.542
REMARK  Name = min_compound982.pdb
REMARK  0 active torsions:
REMARK  status: ('A' for Active; 'I' for Inactive)
REMARK                            x       y       z     vdW  Elec       q    Type
REMARK                         _______ _______ _______ _____ _____    ______ ____
ROOT
ATOM      1  C   UNL     1     -16.851   3.417 -16.900  0.00  0.00    +0.040 C 
ATOM      2  C   UNL     1     -16.098   3.743 -15.642  0.00  0.00    -0.040 A 
ATOM      3  C   UNL     1     -16.886   4.019 -14.497  0.00  0.00    +0.004 A 
ATOM      4  C   UNL     1     -16.314   4.377 -13.284  0.00  0.00    +0.000 A 
ATOM      5  C   UNL     1     -14.939   4.451 -13.187  0.00  0.00    +0.000 A 
ATOM      6  C   UNL     1     -14.150   4.161 -14.304  0.00  0.00    +0.008 A 
ATOM      7  C   UNL     1     -14.692   3.809 -15.573  0.00  0.00    +0.004 A 
ATOM      8  C   UNL     1     -13.696   3.466 -16.717  0.00  0.00    +0.168 C 
ATOM      9  C   UNL     1     -12.533   4.496 -16.780  0.00  0.00    +0.099 C 
ATOM     10  C   UNL     1     -11.393   3.763 -16.175  0.00  0.00    +0.034 C 
ATOM     11  C   UNL     1     -10.182   4.240 -15.862  0.00  0.00    +0.019 C 
ATOM     12  C   UNL     1     -11.790   2.366 -15.918  0.00  0.00    +0.336 C 
ATOM     13  O   UNL     1     -11.069   1.487 -15.483  0.00  0.00    -0.245 OA
ATOM     14  O   UNL     1     -13.092   2.219 -16.267  0.00  0.00    -0.445 OA
ATOM     15  C   UNL     1     -14.135   3.212 -18.185  0.00  0.00    +0.004 A 
ATOM     16  C   UNL     1     -13.223   2.524 -19.034  0.00  0.00    +0.008 A 
ATOM     17  C   UNL     1     -13.435   2.366 -20.405  0.00  0.00    +0.000 A 
ATOM     18  C   UNL     1     -14.574   2.891 -20.986  0.00  0.00    +0.000 A 
ATOM     19  C   UNL     1     -15.502   3.550 -20.187  0.00  0.00    +0.004 A 
ATOM     20  C   UNL     1     -15.304   3.705 -18.796  0.00  0.00    -0.040 A 
ATOM     21  C   UNL     1     -16.419   4.345 -18.023  0.00  0.00    +0.040 C 
ENDROOT
TORSDOF 0
ENDMDL
MODEL 9
REMARK VINA RESULT:      -7.0      2.111      4.304
REMARK  Name = min_compound982.pdb
REMARK  0 active torsions:
REMARK  status: ('A' for Active; 'I' for Inactive)
REMARK                            x       y       z     vdW  Elec       q    Type
REMARK                         _______ _______ _______ _____ _____    ______ ____
ROOT
ATOM      1  C   UNL     1     -14.740   3.398 -15.198  0.00  0.00    +0.040 C 
ATOM      2  C   UNL     1     -15.357   4.481 -16.038  0.00  0.00    -0.040 A 
ATOM      3  C   UNL     1     -16.658   4.895 -15.664  0.00  0.00    +0.004 A 
ATOM      4  C   UNL     1     -17.356   5.855 -16.385  0.00  0.00    +0.000 A 
ATOM      5  C   UNL     1     -16.758   6.433 -17.486  0.00  0.00    +0.000 A 
ATOM      6  C   UNL     1     -15.466   6.047 -17.853  0.00  0.00    +0.008 A 
ATOM      7  C   UNL     1     -14.719   5.053 -17.157  0.00  0.00    +0.004 A 
ATOM      8  C   UNL     1     -13.274   4.756 -17.647  0.00  0.00    +0.168 C 
ATOM      9  C   UNL     1     -13.218   4.631 -19.196  0.00  0.00    +0.099 C 
ATOM     10  C   UNL     1     -12.616   5.921 -19.621  0.00  0.00    +0.034 C 
ATOM     11  C   UNL     1     -12.469   6.388 -20.867  0.00  0.00    +0.019 C 
ATOM     12  C   UNL     1     -12.201   6.683 -18.429  0.00  0.00    +0.336 C 
ATOM     13  O   UNL     1     -11.621   7.754 -18.432  0.00  0.00    -0.245 OA
ATOM     14  O   UNL     1     -12.556   5.982 -17.325  0.00  0.00    -0.445 OA
ATOM     15  C   UNL     1     -12.401   3.600 -17.085  0.00  0.00    +0.004 A 
ATOM     16  C   UNL     1     -10.996   3.673 -17.301  0.00  0.00    +0.008 A 
ATOM     17  C   UNL     1     -10.124   2.632 -16.977  0.00  0.00    +0.000 A 
ATOM     18  C   UNL     1     -10.625   1.469 -16.420  0.00  0.00    +0.000 A 
ATOM     19  C   UNL     1     -11.988   1.368 -16.171  0.00  0.00    +0.004 A 
ATOM     20  C   UNL     1     -12.878   2.420 -16.483  0.00  0.00    -0.040 A 
ATOM     21  C   UNL     1     -14.311   2.235 -16.076  0.00  0.00    +0.040 C 
ENDROOT
TORSDOF 0
ENDMDL
