MODEL 1
REMARK VINA RESULT:      -7.9      0.000      0.000
REMARK  Name = min_compound990.pdb
REMARK  2 active torsions:
REMARK  status: ('A' for Active; 'I' for Inactive)
REMARK    1  A    between atoms: _3  and  _24
REMARK    2  A    between atoms: _10  and  _24
REMARK                            x       y       z     vdW  Elec       q    Type
REMARK                         _______ _______ _______ _____ _____    ______ ____
ROOT
ATOM      1  S   UNL     1     -14.598   4.355 -17.176  0.00  0.00    +0.061 S 
ATOM      2  O   UNL     1     -15.679   3.504 -17.624  0.00  0.00    -0.153 OA
ATOM      3  O   UNL     1     -13.974   5.287 -18.093  0.00  0.00    -0.153 OA
ENDROOT
BRANCH   1   4
ATOM      4  C   UNL     1     -13.280   3.324 -16.569  0.00  0.00    +0.106 A 
ATOM      5  C   UNL     1     -13.229   1.966 -16.885  0.00  0.00    +0.034 A 
ATOM      6  C   UNL     1     -12.143   1.188 -16.449  0.00  0.00    -0.025 A 
ATOM      7  C   UNL     1     -12.108  -0.283 -16.779  0.00  0.00    +0.038 C 
ATOM      8  C   UNL     1     -11.080  -1.032 -15.937  0.00  0.00    +0.023 C 
ATOM      9  C   UNL     1      -9.774  -0.252 -15.917  0.00  0.00    +0.102 C 
ATOM     10  N   UNL     1      -9.981   1.046 -15.287  0.00  0.00    -0.344 N 
ATOM     11  H   UNL     1      -9.134   1.603 -15.221  0.00  0.00    +0.146 HD
ATOM     12  C   UNL     1     -11.068   1.793 -15.768  0.00  0.00    +0.030 A 
ATOM     13  C   UNL     1     -11.153   3.151 -15.439  0.00  0.00    +0.025 A 
ATOM     14  C   UNL     1     -12.244   3.919 -15.846  0.00  0.00    +0.030 A 
ENDBRANCH   1   4
BRANCH   1  24
ATOM     15  C   UNL     1     -15.962   4.655 -14.747  0.00  0.00    +0.083 C 
ATOM     16  C   UNL     1     -17.426   5.101 -15.070  0.00  0.00    +0.008 C 
ATOM     17  C   UNL     1     -18.486   4.596 -14.135  0.00  0.00    +0.005 C 
ATOM     18  C   UNL     1     -17.556   4.013 -12.956  0.00  0.00    +0.000 C 
ATOM     19  C   UNL     1     -16.941   2.621 -13.453  0.00  0.00    +0.002 C 
ATOM     20  C   UNL     1     -17.669   6.341 -15.879  0.00  0.00    +0.006 C 
ATOM     21  C   UNL     1     -16.611   6.846 -16.813  0.00  0.00    +0.017 C 
ATOM     22  C   UNL     1     -15.315   6.644 -15.901  0.00  0.00    +0.110 C 
ATOM     23  C   UNL     1     -15.882   3.126 -14.388  0.00  0.00    +0.021 C 
ATOM     24  N   UNL     1     -15.062   5.189 -15.779  0.00  0.00    -0.173 NA
ENDBRANCH   1  24
TORSDOF 2
ENDMDL
MODEL 2
REMARK VINA RESULT:      -7.4      3.392      5.027
REMARK  Name = min_compound990.pdb
REMARK  2 active torsions:
REMARK  status: ('A' for Active; 'I' for Inactive)
REMARK    1  A    between atoms: _3  and  _24
REMARK    2  A    between atoms: _10  and  _24
REMARK                            x       y       z     vdW  Elec       q    Type
REMARK                         _______ _______ _______ _____ _____    ______ ____
ROOT
ATOM      1  S   UNL     1     -14.617   4.327 -18.205  0.00  0.00    +0.061 S 
ATOM      2  O   UNL     1     -14.577   5.707 -17.774  0.00  0.00    -0.153 OA
ATOM      3  O   UNL     1     -15.843   3.562 -18.093  0.00  0.00    -0.153 OA
ENDROOT
BRANCH   1   4
ATOM      4  C   UNL     1     -13.395   3.411 -17.288  0.00  0.00    +0.106 A 
ATOM      5  C   UNL     1     -13.102   2.086 -17.611  0.00  0.00    +0.034 A 
ATOM      6  C   UNL     1     -12.087   1.407 -16.916  0.00  0.00    -0.025 A 
ATOM      7  C   UNL     1     -11.792  -0.031 -17.259  0.00  0.00    +0.038 C 
ATOM      8  C   UNL     1     -10.945  -0.711 -16.188  0.00  0.00    +0.023 C 
ATOM      9  C   UNL     1      -9.793   0.202 -15.797  0.00  0.00    +0.102 C 
ATOM     10  N   UNL     1     -10.312   1.434 -15.216  0.00  0.00    -0.344 N 
ATOM     11  H   UNL     1      -9.585   2.074 -14.909  0.00  0.00    +0.146 HD
ATOM     12  C   UNL     1     -11.312   2.085 -15.955  0.00  0.00    +0.030 A 
ATOM     13  C   UNL     1     -11.641   3.407 -15.629  0.00  0.00    +0.025 A 
ATOM     14  C   UNL     1     -12.667   4.074 -16.297  0.00  0.00    +0.030 A 
ENDBRANCH   1   4
BRANCH   1  24
ATOM     15  C   UNL     1     -13.175   5.195 -20.445  0.00  0.00    +0.083 C 
ATOM     16  C   UNL     1     -14.075   6.200 -21.236  0.00  0.00    +0.008 C 
ATOM     17  C   UNL     1     -13.353   7.319 -21.929  0.00  0.00    +0.005 C 
ATOM     18  C   UNL     1     -11.837   6.795 -21.790  0.00  0.00    +0.000 C 
ATOM     19  C   UNL     1     -11.360   7.053 -20.284  0.00  0.00    +0.002 C 
ATOM     20  C   UNL     1     -15.432   5.774 -21.712  0.00  0.00    +0.006 C 
ATOM     21  C   UNL     1     -16.153   4.657 -21.019  0.00  0.00    +0.017 C 
ATOM     22  C   UNL     1     -14.945   3.632 -20.811  0.00  0.00    +0.110 C 
ATOM     23  C   UNL     1     -12.082   5.935 -19.590  0.00  0.00    +0.021 C 
ATOM     24  N   UNL     1     -14.034   4.200 -19.789  0.00  0.00    -0.173 NA
ENDBRANCH   1  24
TORSDOF 2
ENDMDL
MODEL 3
REMARK VINA RESULT:      -7.1      6.159      8.451
REMARK  Name = min_compound990.pdb
REMARK  2 active torsions:
REMARK  status: ('A' for Active; 'I' for Inactive)
REMARK    1  A    between atoms: _3  and  _24
REMARK    2  A    between atoms: _10  and  _24
REMARK                            x       y       z     vdW  Elec       q    Type
REMARK                         _______ _______ _______ _____ _____    ______ ____
ROOT
ATOM      1  S   UNL     1     -18.435   3.450  -8.654  0.00  0.00    +0.061 S 
ATOM      2  O   UNL     1     -19.355   2.372  -8.943  0.00  0.00    -0.153 OA
ATOM      3  O   UNL     1     -18.936   4.777  -8.359  0.00  0.00    -0.153 OA
ENDROOT
BRANCH   1   4
ATOM      4  C   UNL     1     -17.340   3.648 -10.044  0.00  0.00    +0.106 A 
ATOM      5  C   UNL     1     -17.666   3.121 -11.294  0.00  0.00    +0.034 A 
ATOM      6  C   UNL     1     -16.817   3.348 -12.390  0.00  0.00    -0.025 A 
ATOM      7  C   UNL     1     -17.169   2.757 -13.732  0.00  0.00    +0.038 C 
ATOM      8  C   UNL     1     -15.986   2.784 -14.695  0.00  0.00    +0.023 C 
ATOM      9  C   UNL     1     -15.323   4.152 -14.646  0.00  0.00    +0.102 C 
ATOM     10  N   UNL     1     -14.795   4.400 -13.311  0.00  0.00    -0.344 N 
ATOM     11  H   UNL     1     -14.315   5.292 -13.224  0.00  0.00    +0.146 HD
ATOM     12  C   UNL     1     -15.685   4.176 -12.249  0.00  0.00    +0.030 A 
ATOM     13  C   UNL     1     -15.364   4.673 -10.980  0.00  0.00    +0.025 A 
ATOM     14  C   UNL     1     -16.189   4.424  -9.884  0.00  0.00    +0.030 A 
ENDBRANCH   1   4
BRANCH   1  24
ATOM     15  C   UNL     1     -16.954   1.598  -7.162  0.00  0.00    +0.083 C 
ATOM     16  C   UNL     1     -17.901   0.987  -6.078  0.00  0.00    +0.008 C 
ATOM     17  C   UNL     1     -17.648  -0.449  -5.722  0.00  0.00    +0.005 C 
ATOM     18  C   UNL     1     -16.228  -0.666  -6.450  0.00  0.00    +0.000 C 
ATOM     19  C   UNL     1     -16.495  -0.816  -8.021  0.00  0.00    +0.002 C 
ATOM     20  C   UNL     1     -18.604   1.888  -5.106  0.00  0.00    +0.006 C 
ATOM     21  C   UNL     1     -18.856   3.322  -5.461  0.00  0.00    +0.017 C 
ATOM     22  C   UNL     1     -17.455   3.694  -6.132  0.00  0.00    +0.110 C 
ATOM     23  C   UNL     1     -16.748   0.621  -8.377  0.00  0.00    +0.021 C 
ATOM     24  N   UNL     1     -17.365   2.983  -7.429  0.00  0.00    -0.173 NA
ENDBRANCH   1  24
TORSDOF 2
ENDMDL
MODEL 4
REMARK VINA RESULT:      -7.0      3.935      6.835
REMARK  Name = min_compound990.pdb
REMARK  2 active torsions:
REMARK  status: ('A' for Active; 'I' for Inactive)
REMARK    1  A    between atoms: _3  and  _24
REMARK    2  A    between atoms: _10  and  _24
REMARK                            x       y       z     vdW  Elec       q    Type
REMARK                         _______ _______ _______ _____ _____    ______ ____
ROOT
ATOM      1  S   UNL     1     -13.684   3.333 -17.710  0.00  0.00    +0.061 S 
ATOM      2  O   UNL     1     -14.295   2.405 -16.785  0.00  0.00    -0.153 OA
ATOM      3  O   UNL     1     -13.847   4.761 -17.527  0.00  0.00    -0.153 OA
ENDROOT
BRANCH   1   4
ATOM      4  C   UNL     1     -14.293   2.986 -19.347  0.00  0.00    +0.106 A 
ATOM      5  C   UNL     1     -15.354   3.715 -19.886  0.00  0.00    +0.034 A 
ATOM      6  C   UNL     1     -15.773   3.467 -21.204  0.00  0.00    -0.025 A 
ATOM      7  C   UNL     1     -16.933   4.246 -21.769  0.00  0.00    +0.038 C 
ATOM      8  C   UNL     1     -17.482   3.609 -23.043  0.00  0.00    +0.023 C 
ATOM      9  C   UNL     1     -16.328   3.239 -23.962  0.00  0.00    +0.102 C 
ATOM     10  N   UNL     1     -15.478   2.246 -23.317  0.00  0.00    -0.344 N 
ATOM     11  H   UNL     1     -14.702   1.939 -23.897  0.00  0.00    +0.146 HD
ATOM     12  C   UNL     1     -15.072   2.546 -22.007  0.00  0.00    +0.030 A 
ATOM     13  C   UNL     1     -14.027   1.808 -21.438  0.00  0.00    +0.025 A 
ATOM     14  C   UNL     1     -13.628   2.032 -20.120  0.00  0.00    +0.030 A 
ENDBRANCH   1   4
BRANCH   1  24
ATOM     15  C   UNL     1     -11.373   1.799 -17.312  0.00  0.00    +0.083 C 
ATOM     16  C   UNL     1     -10.798   2.154 -15.902  0.00  0.00    +0.008 C 
ATOM     17  C   UNL     1     -10.128   1.030 -15.166  0.00  0.00    +0.005 C 
ATOM     18  C   UNL     1     -10.028  -0.053 -16.354  0.00  0.00    +0.000 C 
ATOM     19  C   UNL     1     -11.481  -0.691 -16.565  0.00  0.00    +0.002 C 
ATOM     20  C   UNL     1     -10.456   3.577 -15.570  0.00  0.00    +0.006 C 
ATOM     21  C   UNL     1     -11.126   4.699 -16.304  0.00  0.00    +0.017 C 
ATOM     22  C   UNL     1     -11.085   4.122 -17.793  0.00  0.00    +0.110 C 
ATOM     23  C   UNL     1     -12.151   0.433 -17.300  0.00  0.00    +0.021 C 
ATOM     24  N   UNL     1     -12.035   2.987 -17.870  0.00  0.00    -0.173 NA
ENDBRANCH   1  24
TORSDOF 2
ENDMDL
MODEL 5
REMARK VINA RESULT:      -7.0      2.583      7.020
REMARK  Name = min_compound990.pdb
REMARK  2 active torsions:
REMARK  status: ('A' for Active; 'I' for Inactive)
REMARK    1  A    between atoms: _3  and  _24
REMARK    2  A    between atoms: _10  and  _24
REMARK                            x       y       z     vdW  Elec       q    Type
REMARK                         _______ _______ _______ _____ _____    ______ ____
ROOT
ATOM      1  S   UNL     1     -14.155   3.196 -16.028  0.00  0.00    +0.061 S 
ATOM      2  O   UNL     1     -15.147   2.160 -15.842  0.00  0.00    -0.153 OA
ATOM      3  O   UNL     1     -13.346   3.641 -14.912  0.00  0.00    -0.153 OA
ENDROOT
BRANCH   1   4
ATOM      4  C   UNL     1     -14.969   4.656 -16.642  0.00  0.00    +0.106 A 
ATOM      5  C   UNL     1     -14.780   5.894 -16.028  0.00  0.00    +0.034 A 
ATOM      6  C   UNL     1     -15.381   7.042 -16.572  0.00  0.00    -0.025 A 
ATOM      7  C   UNL     1     -15.185   8.372 -15.888  0.00  0.00    +0.038 C 
ATOM      8  C   UNL     1     -16.182   9.417 -16.380  0.00  0.00    +0.023 C 
ATOM      9  C   UNL     1     -16.253   9.375 -17.899  0.00  0.00    +0.102 C 
ATOM     10  N   UNL     1     -16.744   8.075 -18.337  0.00  0.00    -0.344 N 
ATOM     11  H   UNL     1     -16.838   7.996 -19.346  0.00  0.00    +0.146 HD
ATOM     12  C   UNL     1     -16.101   6.958 -17.779  0.00  0.00    +0.030 A 
ATOM     13  C   UNL     1     -16.300   5.702 -18.364  0.00  0.00    +0.025 A 
ATOM     14  C   UNL     1     -15.729   4.556 -17.810  0.00  0.00    +0.030 A 
ENDBRANCH   1   4
BRANCH   1  24
ATOM     15  C   UNL     1     -12.208   1.654 -17.326  0.00  0.00    +0.083 C 
ATOM     16  C   UNL     1     -10.805   2.138 -16.833  0.00  0.00    +0.008 C 
ATOM     17  C   UNL     1      -9.745   1.080 -16.733  0.00  0.00    +0.005 C 
ATOM     18  C   UNL     1     -10.485  -0.122 -17.509  0.00  0.00    +0.000 C 
ATOM     19  C   UNL     1     -11.585  -0.742 -16.525  0.00  0.00    +0.002 C 
ATOM     20  C   UNL     1     -10.415   3.579 -16.987  0.00  0.00    +0.006 C 
ATOM     21  C   UNL     1     -11.473   4.636 -17.086  0.00  0.00    +0.017 C 
ATOM     22  C   UNL     1     -12.504   3.907 -18.065  0.00  0.00    +0.110 C 
ATOM     23  C   UNL     1     -12.645   0.316 -16.625  0.00  0.00    +0.021 C 
ATOM     24  N   UNL     1     -13.136   2.794 -17.317  0.00  0.00    -0.173 NA
ENDBRANCH   1  24
TORSDOF 2
ENDMDL
MODEL 6
REMARK VINA RESULT:      -6.9      2.007      3.233
REMARK  Name = min_compound990.pdb
REMARK  2 active torsions:
REMARK  status: ('A' for Active; 'I' for Inactive)
REMARK    1  A    between atoms: _3  and  _24
REMARK    2  A    between atoms: _10  and  _24
REMARK                            x       y       z     vdW  Elec       q    Type
REMARK                         _______ _______ _______ _____ _____    ______ ____
ROOT
ATOM      1  S   UNL     1     -12.927   5.162 -18.142  0.00  0.00    +0.061 S 
ATOM      2  O   UNL     1     -12.588   5.033 -19.543  0.00  0.00    -0.153 OA
ATOM      3  O   UNL     1     -12.612   6.380 -17.424  0.00  0.00    -0.153 OA
ENDROOT
BRANCH   1   4
ATOM      4  C   UNL     1     -12.123   3.853 -17.242  0.00  0.00    +0.106 A 
ATOM      5  C   UNL     1     -12.262   2.522 -17.635  0.00  0.00    +0.034 A 
ATOM      6  C   UNL     1     -11.564   1.514 -16.948  0.00  0.00    -0.025 A 
ATOM      7  C   UNL     1     -11.738   0.077 -17.368  0.00  0.00    +0.038 C 
ATOM      8  C   UNL     1     -11.218  -0.893 -16.312  0.00  0.00    +0.023 C 
ATOM      9  C   UNL     1      -9.853  -0.430 -15.826  0.00  0.00    +0.102 C 
ATOM     10  N   UNL     1      -9.970   0.876 -15.189  0.00  0.00    -0.344 N 
ATOM     11  H   UNL     1      -9.091   1.226 -14.819  0.00  0.00    +0.146 HD
ATOM     12  C   UNL     1     -10.661   1.854 -15.921  0.00  0.00    +0.030 A 
ATOM     13  C   UNL     1     -10.556   3.193 -15.526  0.00  0.00    +0.025 A 
ATOM     14  C   UNL     1     -11.271   4.192 -16.187  0.00  0.00    +0.030 A 
ENDBRANCH   1   4
BRANCH   1  24
ATOM     15  C   UNL     1     -15.676   5.695 -18.237  0.00  0.00    +0.083 C 
ATOM     16  C   UNL     1     -16.048   6.527 -16.966  0.00  0.00    +0.008 C 
ATOM     17  C   UNL     1     -17.142   7.539 -17.143  0.00  0.00    +0.005 C 
ATOM     18  C   UNL     1     -17.696   7.094 -18.589  0.00  0.00    +0.000 C 
ATOM     19  C   UNL     1     -16.661   7.612 -19.695  0.00  0.00    +0.002 C 
ATOM     20  C   UNL     1     -15.742   5.985 -15.601  0.00  0.00    +0.006 C 
ATOM     21  C   UNL     1     -14.648   4.975 -15.424  0.00  0.00    +0.017 C 
ATOM     22  C   UNL     1     -14.927   4.038 -16.688  0.00  0.00    +0.110 C 
ATOM     23  C   UNL     1     -15.567   6.600 -19.518  0.00  0.00    +0.021 C 
ATOM     24  N   UNL     1     -14.562   4.795 -17.908  0.00  0.00    -0.173 NA
ENDBRANCH   1  24
TORSDOF 2
ENDMDL
MODEL 7
REMARK VINA RESULT:      -6.9      2.663      4.045
REMARK  Name = min_compound990.pdb
REMARK  2 active torsions:
REMARK  status: ('A' for Active; 'I' for Inactive)
REMARK    1  A    between atoms: _3  and  _24
REMARK    2  A    between atoms: _10  and  _24
REMARK                            x       y       z     vdW  Elec       q    Type
REMARK                         _______ _______ _______ _____ _____    ______ ____
ROOT
ATOM      1  S   UNL     1     -14.105   4.708 -17.123  0.00  0.00    +0.061 S 
ATOM      2  O   UNL     1     -13.450   5.647 -18.007  0.00  0.00    -0.153 OA
ATOM      3  O   UNL     1     -14.779   5.177 -15.929  0.00  0.00    -0.153 OA
ENDROOT
BRANCH   1   4
ATOM      4  C   UNL     1     -12.898   3.525 -16.559  0.00  0.00    +0.106 A 
ATOM      5  C   UNL     1     -13.049   2.165 -16.828  0.00  0.00    +0.034 A 
ATOM      6  C   UNL     1     -12.050   1.260 -16.430  0.00  0.00    -0.025 A 
ATOM      7  C   UNL     1     -12.232  -0.211 -16.707  0.00  0.00    +0.038 C 
ATOM      8  C   UNL     1     -11.261  -1.068 -15.901  0.00  0.00    +0.023 C 
ATOM      9  C   UNL     1      -9.865  -0.471 -15.990  0.00  0.00    +0.102 C 
ATOM     10  N   UNL     1      -9.855   0.860 -15.397  0.00  0.00    -0.344 N 
ATOM     11  H   UNL     1      -8.939   1.300 -15.403  0.00  0.00    +0.146 HD
ATOM     12  C   UNL     1     -10.862   1.734 -15.838  0.00  0.00    +0.030 A 
ATOM     13  C   UNL     1     -10.744   3.100 -15.555  0.00  0.00    +0.025 A 
ATOM     14  C   UNL     1     -11.747   3.996 -15.923  0.00  0.00    +0.030 A 
ENDBRANCH   1   4
BRANCH   1  24
ATOM     15  C   UNL     1     -15.042   3.441 -19.440  0.00  0.00    +0.083 C 
ATOM     16  C   UNL     1     -15.893   4.478 -20.243  0.00  0.00    +0.008 C 
ATOM     17  C   UNL     1     -15.836   4.355 -21.738  0.00  0.00    +0.005 C 
ATOM     18  C   UNL     1     -15.102   2.928 -21.867  0.00  0.00    +0.000 C 
ATOM     19  C   UNL     1     -13.547   3.140 -21.549  0.00  0.00    +0.002 C 
ATOM     20  C   UNL     1     -17.067   5.148 -19.591  0.00  0.00    +0.006 C 
ATOM     21  C   UNL     1     -17.124   5.271 -18.098  0.00  0.00    +0.017 C 
ATOM     22  C   UNL     1     -16.611   3.818 -17.678  0.00  0.00    +0.110 C 
ATOM     23  C   UNL     1     -13.605   3.263 -20.054  0.00  0.00    +0.021 C 
ATOM     24  N   UNL     1     -15.168   3.730 -18.005  0.00  0.00    -0.173 NA
ENDBRANCH   1  24
TORSDOF 2
ENDMDL
MODEL 8
REMARK VINA RESULT:      -6.8      9.038     11.699
REMARK  Name = min_compound990.pdb
REMARK  2 active torsions:
REMARK  status: ('A' for Active; 'I' for Inactive)
REMARK    1  A    between atoms: _3  and  _24
REMARK    2  A    between atoms: _10  and  _24
REMARK                            x       y       z     vdW  Elec       q    Type
REMARK                         _______ _______ _______ _____ _____    ______ ____
ROOT
ATOM      1  S   UNL     1     -18.171   1.355  -5.623  0.00  0.00    +0.061 S 
ATOM      2  O   UNL     1     -17.651   0.149  -6.229  0.00  0.00    -0.153 OA
ATOM      3  O   UNL     1     -19.598   1.521  -5.435  0.00  0.00    -0.153 OA
ENDROOT
BRANCH   1   4
ATOM      4  C   UNL     1     -17.651   2.750  -6.602  0.00  0.00    +0.106 A 
ATOM      5  C   UNL     1     -17.173   2.575  -7.901  0.00  0.00    +0.034 A 
ATOM      6  C   UNL     1     -16.832   3.697  -8.675  0.00  0.00    -0.025 A 
ATOM      7  C   UNL     1     -16.298   3.496 -10.071  0.00  0.00    +0.038 C 
ATOM      8  C   UNL     1     -15.645   4.761 -10.619  0.00  0.00    +0.023 C 
ATOM      9  C   UNL     1     -16.543   5.957 -10.342  0.00  0.00    +0.102 C 
ATOM     10  N   UNL     1     -16.695   6.140  -8.904  0.00  0.00    -0.344 N 
ATOM     11  H   UNL     1     -17.265   6.944  -8.656  0.00  0.00    +0.146 HD
ATOM     12  C   UNL     1     -17.052   4.995  -8.175  0.00  0.00    +0.030 A 
ATOM     13  C   UNL     1     -17.509   5.146  -6.860  0.00  0.00    +0.025 A 
ATOM     14  C   UNL     1     -17.819   4.034  -6.078  0.00  0.00    +0.030 A 
ENDBRANCH   1   4
BRANCH   1  24
ATOM     15  C   UNL     1     -15.973   1.343  -3.885  0.00  0.00    +0.083 C 
ATOM     16  C   UNL     1     -15.873  -0.082  -3.248  0.00  0.00    +0.008 C 
ATOM     17  C   UNL     1     -14.485  -0.572  -2.955  0.00  0.00    +0.005 C 
ATOM     18  C   UNL     1     -13.661   0.795  -3.171  0.00  0.00    +0.000 C 
ATOM     19  C   UNL     1     -13.534   1.054  -4.745  0.00  0.00    +0.002 C 
ATOM     20  C   UNL     1     -17.042  -0.650  -2.499  0.00  0.00    +0.006 C 
ATOM     21  C   UNL     1     -18.428  -0.161  -2.791  0.00  0.00    +0.017 C 
ATOM     22  C   UNL     1     -18.152   1.408  -2.907  0.00  0.00    +0.110 C 
ATOM     23  C   UNL     1     -14.922   1.544  -5.038  0.00  0.00    +0.021 C 
ATOM     24  N   UNL     1     -17.386   1.647  -4.153  0.00  0.00    -0.173 NA
ENDBRANCH   1  24
TORSDOF 2
ENDMDL
MODEL 9
REMARK VINA RESULT:      -6.8      6.896      9.314
REMARK  Name = min_compound990.pdb
REMARK  2 active torsions:
REMARK  status: ('A' for Active; 'I' for Inactive)
REMARK    1  A    between atoms: _3  and  _24
REMARK    2  A    between atoms: _10  and  _24
REMARK                            x       y       z     vdW  Elec       q    Type
REMARK                         _______ _______ _______ _____ _____    ______ ____
ROOT
ATOM      1  S   UNL     1     -18.153   2.476  -7.847  0.00  0.00    +0.061 S 
ATOM      2  O   UNL     1     -18.213   1.046  -8.055  0.00  0.00    -0.153 OA
ATOM      3  O   UNL     1     -19.371   3.240  -7.667  0.00  0.00    -0.153 OA
ENDROOT
BRANCH   1   4
ATOM      4  C   UNL     1     -17.325   3.217  -9.240  0.00  0.00    +0.106 A 
ATOM      5  C   UNL     1     -17.501   2.713 -10.529  0.00  0.00    +0.034 A 
ATOM      6  C   UNL     1     -16.890   3.356 -11.619  0.00  0.00    -0.025 A 
ATOM      7  C   UNL     1     -17.071   2.791 -13.005  0.00  0.00    +0.038 C 
ATOM      8  C   UNL     1     -16.065   3.373 -13.994  0.00  0.00    +0.023 C 
ATOM      9  C   UNL     1     -15.997   4.882 -13.818  0.00  0.00    +0.102 C 
ATOM     10  N   UNL     1     -15.519   5.205 -12.480  0.00  0.00    -0.344 N 
ATOM     11  H   UNL     1     -15.426   6.203 -12.312  0.00  0.00    +0.146 HD
ATOM     12  C   UNL     1     -16.171   4.551 -11.422  0.00  0.00    +0.030 A 
ATOM     13  C   UNL     1     -15.986   5.024 -10.118  0.00  0.00    +0.025 A 
ATOM     14  C   UNL     1     -16.567   4.371  -9.031  0.00  0.00    +0.030 A 
ENDBRANCH   1   4
BRANCH   1  24
ATOM     15  C   UNL     1     -15.960   1.984  -6.175  0.00  0.00    +0.083 C 
ATOM     16  C   UNL     1     -16.430   1.019  -5.037  0.00  0.00    +0.008 C 
ATOM     17  C   UNL     1     -15.403   0.044  -4.540  0.00  0.00    +0.005 C 
ATOM     18  C   UNL     1     -14.086   0.653  -5.238  0.00  0.00    +0.000 C 
ATOM     19  C   UNL     1     -14.117   0.252  -6.787  0.00  0.00    +0.002 C 
ATOM     20  C   UNL     1     -17.587   1.402  -4.162  0.00  0.00    +0.006 C 
ATOM     21  C   UNL     1     -18.612   2.376  -4.659  0.00  0.00    +0.017 C 
ATOM     22  C   UNL     1     -17.661   3.451  -5.360  0.00  0.00    +0.110 C 
ATOM     23  C   UNL     1     -15.144   1.226  -7.285  0.00  0.00    +0.021 C 
ATOM     24  N   UNL     1     -17.090   2.831  -6.579  0.00  0.00    -0.173 NA
ENDBRANCH   1  24
TORSDOF 2
ENDMDL
