MODEL 1
REMARK VINA RESULT:      -6.8      0.000      0.000
REMARK  Name = min_compound919.pdb
REMARK  3 active torsions:
REMARK  status: ('A' for Active; 'I' for Inactive)
REMARK    1  A    between atoms: _1  and  _15
REMARK    2  A    between atoms: _2  and  _16
REMARK    3  A    between atoms: _6  and  _19
REMARK                            x       y       z     vdW  Elec       q    Type
REMARK                         _______ _______ _______ _____ _____    ______ ____
ROOT
ATOM      1  C   UNL     1     -15.025   7.680 -16.315  0.00  0.00    +0.027 A 
ATOM      2  C   UNL     1     -15.620   9.058 -16.291  0.00  0.00    +0.051 C 
ATOM      3  C   UNL     1     -15.302   6.589 -15.466  0.00  0.00    +0.278 A 
ATOM      4  C   UNL     1     -14.691   5.259 -15.614  0.00  0.00    +0.107 A 
ATOM      5  C   UNL     1     -13.760   4.940 -16.626  0.00  0.00    +0.041 A 
ATOM      6  C   UNL     1     -13.474   6.016 -17.472  0.00  0.00    +0.024 A 
ATOM      7  C   UNL     1     -14.082   7.323 -17.322  0.00  0.00    +0.012 A 
ENDROOT
BRANCH   5   8
ATOM      8  N   UNL     1     -13.176   3.585 -16.727  0.00  0.00    -0.269 N 
ATOM      9  H   UNL     1     -13.788   2.824 -16.478  0.00  0.00    +0.156 HD
ATOM     10  C   UNL     1     -11.875   3.239 -17.138  0.00  0.00    +0.306 C 
ATOM     11  N   UNL     1     -11.481   1.841 -17.114  0.00  0.00    -0.285 N 
ATOM     12  C   UNL     1     -12.299   0.700 -16.560  0.00  0.00    +0.109 C 
ATOM     13  C   UNL     1     -11.745  -0.694 -16.598  0.00  0.00    +0.019 C 
ATOM     14  C   UNL     1     -10.285  -0.299 -16.047  0.00  0.00    +0.003 C 
ATOM     15  C   UNL     1      -9.426   0.247 -17.295  0.00  0.00    +0.019 C 
ATOM     16  C   UNL     1      -9.980   1.640 -17.258  0.00  0.00    +0.109 C 
ATOM     17  O   UNL     1     -11.056   4.091 -17.491  0.00  0.00    -0.252 OA
ENDBRANCH   5   8
BRANCH   3  18
ATOM     18  N   UNL     1     -16.251   6.755 -14.359  0.00  0.00    +0.080 N 
ATOM     19  O   UNL     1     -15.824   7.273 -13.317  0.00  0.00    +0.041 OA
ATOM     20  O   UNL     1     -17.421   6.387 -14.537  0.00  0.00    -0.576 OA
ENDBRANCH   3  18
TORSDOF 2
ENDMDL
MODEL 2
REMARK VINA RESULT:      -6.5      1.729      2.161
REMARK  Name = min_compound919.pdb
REMARK  3 active torsions:
REMARK  status: ('A' for Active; 'I' for Inactive)
REMARK    1  A    between atoms: _1  and  _15
REMARK    2  A    between atoms: _2  and  _16
REMARK    3  A    between atoms: _6  and  _19
REMARK                            x       y       z     vdW  Elec       q    Type
REMARK                         _______ _______ _______ _____ _____    ______ ____
ROOT
ATOM      1  C   UNL     1     -15.894   6.626 -14.549  0.00  0.00    +0.027 A 
ATOM      2  C   UNL     1     -16.651   7.811 -14.025  0.00  0.00    +0.051 C 
ATOM      3  C   UNL     1     -15.365   6.422 -15.841  0.00  0.00    +0.278 A 
ATOM      4  C   UNL     1     -14.591   5.235 -16.233  0.00  0.00    +0.107 A 
ATOM      5  C   UNL     1     -14.299   4.172 -15.350  0.00  0.00    +0.041 A 
ATOM      6  C   UNL     1     -14.822   4.360 -14.067  0.00  0.00    +0.024 A 
ATOM      7  C   UNL     1     -15.581   5.535 -13.687  0.00  0.00    +0.012 A 
ENDROOT
BRANCH   5   8
ATOM      8  N   UNL     1     -13.516   3.000 -15.798  0.00  0.00    -0.269 N 
ATOM      9  H   UNL     1     -13.955   2.102 -15.665  0.00  0.00    +0.156 HD
ATOM     10  C   UNL     1     -12.241   2.996 -16.394  0.00  0.00    +0.306 C 
ATOM     11  N   UNL     1     -11.620   1.721 -16.713  0.00  0.00    -0.285 N 
ATOM     12  C   UNL     1     -12.157   0.359 -16.348  0.00  0.00    +0.109 C 
ATOM     13  C   UNL     1     -11.389  -0.868 -16.739  0.00  0.00    +0.019 C 
ATOM     14  C   UNL     1      -9.955  -0.320 -16.255  0.00  0.00    +0.003 C 
ATOM     15  C   UNL     1      -9.370   0.615 -17.428  0.00  0.00    +0.019 C 
ATOM     16  C   UNL     1     -10.138   1.842 -17.036  0.00  0.00    +0.109 C 
ATOM     17  O   UNL     1     -11.628   4.040 -16.628  0.00  0.00    -0.252 OA
ENDBRANCH   5   8
BRANCH   3  18
ATOM     18  N   UNL     1     -15.582   7.436 -16.879  0.00  0.00    +0.080 N 
ATOM     19  O   UNL     1     -14.729   8.330 -16.987  0.00  0.00    +0.041 OA
ATOM     20  O   UNL     1     -16.588   7.331 -17.594  0.00  0.00    -0.576 OA
ENDBRANCH   3  18
TORSDOF 2
ENDMDL
MODEL 3
REMARK VINA RESULT:      -6.5      1.611      1.950
REMARK  Name = min_compound919.pdb
REMARK  3 active torsions:
REMARK  status: ('A' for Active; 'I' for Inactive)
REMARK    1  A    between atoms: _1  and  _15
REMARK    2  A    between atoms: _2  and  _16
REMARK    3  A    between atoms: _6  and  _19
REMARK                            x       y       z     vdW  Elec       q    Type
REMARK                         _______ _______ _______ _____ _____    ______ ____
ROOT
ATOM      1  C   UNL     1     -15.846   6.346 -14.401  0.00  0.00    +0.027 A 
ATOM      2  C   UNL     1     -16.687   7.533 -14.032  0.00  0.00    +0.051 C 
ATOM      3  C   UNL     1     -15.519   5.222 -13.615  0.00  0.00    +0.278 A 
ATOM      4  C   UNL     1     -14.721   4.086 -14.100  0.00  0.00    +0.107 A 
ATOM      5  C   UNL     1     -14.197   4.007 -15.409  0.00  0.00    +0.041 A 
ATOM      6  C   UNL     1     -14.510   5.119 -16.197  0.00  0.00    +0.024 A 
ATOM      7  C   UNL     1     -15.300   6.233 -15.713  0.00  0.00    +0.012 A 
ENDROOT
BRANCH   5   8
ATOM      8  N   UNL     1     -13.399   2.840 -15.843  0.00  0.00    -0.269 N 
ATOM      9  H   UNL     1     -13.810   1.936 -15.665  0.00  0.00    +0.156 HD
ATOM     10  C   UNL     1     -12.145   2.846 -16.481  0.00  0.00    +0.306 C 
ATOM     11  N   UNL     1     -11.501   1.578 -16.777  0.00  0.00    -0.285 N 
ATOM     12  C   UNL     1     -11.991   0.216 -16.348  0.00  0.00    +0.109 C 
ATOM     13  C   UNL     1     -11.204  -1.005 -16.723  0.00  0.00    +0.019 C 
ATOM     14  C   UNL     1      -9.770  -0.404 -16.306  0.00  0.00    +0.003 C 
ATOM     15  C   UNL     1      -9.248   0.503 -17.529  0.00  0.00    +0.019 C 
ATOM     16  C   UNL     1     -10.035   1.724 -17.154  0.00  0.00    +0.109 C 
ATOM     17  O   UNL     1     -11.567   3.897 -16.771  0.00  0.00    -0.252 OA
ENDBRANCH   5   8
BRANCH   3  18
ATOM     18  N   UNL     1     -15.988   5.149 -12.227  0.00  0.00    +0.080 N 
ATOM     19  O   UNL     1     -17.190   4.907 -12.045  0.00  0.00    +0.041 OA
ATOM     20  O   UNL     1     -15.157   5.315 -11.323  0.00  0.00    -0.576 OA
ENDBRANCH   3  18
TORSDOF 2
ENDMDL
MODEL 4
REMARK VINA RESULT:      -6.5     12.878     13.876
REMARK  Name = min_compound919.pdb
REMARK  3 active torsions:
REMARK  status: ('A' for Active; 'I' for Inactive)
REMARK    1  A    between atoms: _1  and  _15
REMARK    2  A    between atoms: _2  and  _16
REMARK    3  A    between atoms: _6  and  _19
REMARK                            x       y       z     vdW  Elec       q    Type
REMARK                         _______ _______ _______ _____ _____    ______ ____
ROOT
ATOM      1  C   UNL     1     -15.643   1.127  -7.345  0.00  0.00    +0.027 A 
ATOM      2  C   UNL     1     -15.877   2.159  -8.409  0.00  0.00    +0.051 C 
ATOM      3  C   UNL     1     -16.591   0.328  -6.672  0.00  0.00    +0.278 A 
ATOM      4  C   UNL     1     -16.241  -0.694  -5.674  0.00  0.00    +0.107 A 
ATOM      5  C   UNL     1     -14.914  -0.978  -5.285  0.00  0.00    +0.041 A 
ATOM      6  C   UNL     1     -13.965  -0.188  -5.942  0.00  0.00    +0.024 A 
ATOM      7  C   UNL     1     -14.317   0.815  -6.927  0.00  0.00    +0.012 A 
ENDROOT
BRANCH   5   8
ATOM      8  N   UNL     1     -14.620  -2.017  -4.274  0.00  0.00    -0.269 N 
ATOM      9  H   UNL     1     -14.108  -2.820  -4.606  0.00  0.00    +0.156 HD
ATOM     10  C   UNL     1     -14.963  -2.009  -2.910  0.00  0.00    +0.306 C 
ATOM     11  N   UNL     1     -14.625  -3.163  -2.094  0.00  0.00    -0.285 N 
ATOM     12  C   UNL     1     -14.040  -4.460  -2.597  0.00  0.00    +0.109 C 
ATOM     13  C   UNL     1     -13.756  -5.568  -1.626  0.00  0.00    +0.019 C 
ATOM     14  C   UNL     1     -15.166  -5.469  -0.855  0.00  0.00    +0.003 C 
ATOM     15  C   UNL     1     -15.048  -4.279   0.223  0.00  0.00    +0.019 C 
ATOM     16  C   UNL     1     -15.331  -3.171  -0.747  0.00  0.00    +0.109 C 
ATOM     17  O   UNL     1     -15.565  -1.063  -2.395  0.00  0.00    -0.252 OA
ENDBRANCH   5   8
BRANCH   3  18
ATOM     18  N   UNL     1     -18.019   0.500  -6.963  0.00  0.00    +0.080 N 
ATOM     19  O   UNL     1     -18.641   1.330  -6.283  0.00  0.00    +0.041 OA
ATOM     20  O   UNL     1     -18.512  -0.176  -7.876  0.00  0.00    -0.576 OA
ENDBRANCH   3  18
TORSDOF 2
ENDMDL
MODEL 5
REMARK VINA RESULT:      -6.4      7.157      8.393
REMARK  Name = min_compound919.pdb
REMARK  3 active torsions:
REMARK  status: ('A' for Active; 'I' for Inactive)
REMARK    1  A    between atoms: _1  and  _15
REMARK    2  A    between atoms: _2  and  _16
REMARK    3  A    between atoms: _6  and  _19
REMARK                            x       y       z     vdW  Elec       q    Type
REMARK                         _______ _______ _______ _____ _____    ______ ____
ROOT
ATOM      1  C   UNL     1     -16.693   6.270 -12.191  0.00  0.00    +0.027 A 
ATOM      2  C   UNL     1     -17.017   7.216 -13.310  0.00  0.00    +0.051 C 
ATOM      3  C   UNL     1     -17.259   6.207 -10.900  0.00  0.00    +0.278 A 
ATOM      4  C   UNL     1     -16.898   5.198  -9.893  0.00  0.00    +0.107 A 
ATOM      5  C   UNL     1     -15.939   4.186 -10.118  0.00  0.00    +0.041 A 
ATOM      6  C   UNL     1     -15.366   4.241 -11.392  0.00  0.00    +0.024 A 
ATOM      7  C   UNL     1     -15.730   5.236 -12.381  0.00  0.00    +0.012 A 
ENDROOT
BRANCH   5   8
ATOM      8  N   UNL     1     -15.613   3.197  -9.067  0.00  0.00    -0.269 N 
ATOM      9  H   UNL     1     -14.649   3.173  -8.772  0.00  0.00    +0.156 HD
ATOM     10  C   UNL     1     -16.490   2.299  -8.431  0.00  0.00    +0.306 C 
ATOM     11  N   UNL     1     -15.952   1.365  -7.456  0.00  0.00    -0.285 N 
ATOM     12  C   UNL     1     -14.491   1.164  -7.136  0.00  0.00    +0.109 C 
ATOM     13  C   UNL     1     -14.093   0.147  -6.108  0.00  0.00    +0.019 C 
ATOM     14  C   UNL     1     -15.050  -1.023  -6.663  0.00  0.00    +0.003 C 
ATOM     15  C   UNL     1     -16.524  -0.767  -6.070  0.00  0.00    +0.019 C 
ATOM     16  C   UNL     1     -16.923   0.250  -7.098  0.00  0.00    +0.109 C 
ATOM     17  O   UNL     1     -17.694   2.265  -8.698  0.00  0.00    -0.252 OA
ENDBRANCH   5   8
BRANCH   3  18
ATOM     18  N   UNL     1     -18.274   7.191 -10.508  0.00  0.00    +0.080 N 
ATOM     19  O   UNL     1     -19.425   7.023 -10.937  0.00  0.00    +0.041 OA
ATOM     20  O   UNL     1     -17.928   8.117  -9.761  0.00  0.00    -0.576 OA
ENDBRANCH   3  18
TORSDOF 2
ENDMDL
MODEL 6
REMARK VINA RESULT:      -6.3      3.560      4.967
REMARK  Name = min_compound919.pdb
REMARK  3 active torsions:
REMARK  status: ('A' for Active; 'I' for Inactive)
REMARK    1  A    between atoms: _1  and  _15
REMARK    2  A    between atoms: _2  and  _16
REMARK    3  A    between atoms: _6  and  _19
REMARK                            x       y       z     vdW  Elec       q    Type
REMARK                         _______ _______ _______ _____ _____    ______ ____
ROOT
ATOM      1  C   UNL     1     -18.287   4.361 -11.378  0.00  0.00    +0.027 A 
ATOM      2  C   UNL     1     -19.479   4.468 -10.472  0.00  0.00    +0.051 C 
ATOM      3  C   UNL     1     -17.068   5.067 -11.314  0.00  0.00    +0.278 A 
ATOM      4  C   UNL     1     -15.941   4.843 -12.232  0.00  0.00    +0.107 A 
ATOM      5  C   UNL     1     -15.968   3.895 -13.278  0.00  0.00    +0.041 A 
ATOM      6  C   UNL     1     -17.175   3.192 -13.355  0.00  0.00    +0.024 A 
ATOM      7  C   UNL     1     -18.279   3.415 -12.444  0.00  0.00    +0.012 A 
ENDROOT
BRANCH   5   8
ATOM      8  N   UNL     1     -14.805   3.713 -14.174  0.00  0.00    -0.269 N 
ATOM      9  H   UNL     1     -14.146   3.002 -13.898  0.00  0.00    +0.156 HD
ATOM     10  C   UNL     1     -14.522   4.407 -15.364  0.00  0.00    +0.306 C 
ATOM     11  N   UNL     1     -13.288   4.110 -16.073  0.00  0.00    -0.285 N 
ATOM     12  C   UNL     1     -12.186   3.201 -15.587  0.00  0.00    +0.109 C 
ATOM     13  C   UNL     1     -10.962   3.006 -16.432  0.00  0.00    +0.019 C 
ATOM     14  C   UNL     1     -10.745   4.567 -16.761  0.00  0.00    +0.003 C 
ATOM     15  C   UNL     1     -11.723   4.946 -17.983  0.00  0.00    +0.019 C 
ATOM     16  C   UNL     1     -12.947   5.142 -17.138  0.00  0.00    +0.109 C 
ATOM     17  O   UNL     1     -15.277   5.276 -15.808  0.00  0.00    -0.252 OA
ENDBRANCH   5   8
BRANCH   3  18
ATOM     18  N   UNL     1     -16.879   6.091 -10.281  0.00  0.00    +0.080 N 
ATOM     19  O   UNL     1     -17.369   7.210 -10.493  0.00  0.00    +0.041 OA
ATOM     20  O   UNL     1     -16.259   5.775  -9.256  0.00  0.00    -0.576 OA
ENDBRANCH   3  18
TORSDOF 2
ENDMDL
MODEL 7
REMARK VINA RESULT:      -6.2      1.902      2.937
REMARK  Name = min_compound919.pdb
REMARK  3 active torsions:
REMARK  status: ('A' for Active; 'I' for Inactive)
REMARK    1  A    between atoms: _1  and  _15
REMARK    2  A    between atoms: _2  and  _16
REMARK    3  A    between atoms: _6  and  _19
REMARK                            x       y       z     vdW  Elec       q    Type
REMARK                         _______ _______ _______ _____ _____    ______ ____
ROOT
ATOM      1  C   UNL     1     -16.525   9.503 -17.084  0.00  0.00    +0.027 A 
ATOM      2  C   UNL     1     -17.525  10.610 -17.248  0.00  0.00    +0.051 C 
ATOM      3  C   UNL     1     -16.015   8.948 -15.891  0.00  0.00    +0.278 A 
ATOM      4  C   UNL     1     -15.069   7.823 -15.849  0.00  0.00    +0.107 A 
ATOM      5  C   UNL     1     -14.570   7.183 -17.004  0.00  0.00    +0.041 A 
ATOM      6  C   UNL     1     -15.064   7.728 -18.194  0.00  0.00    +0.024 A 
ATOM      7  C   UNL     1     -15.999   8.834 -18.228  0.00  0.00    +0.012 A 
ENDROOT
BRANCH   5   8
ATOM      8  N   UNL     1     -13.618   6.056 -16.902  0.00  0.00    -0.269 N 
ATOM      9  H   UNL     1     -12.654   6.278 -17.094  0.00  0.00    +0.156 HD
ATOM     10  C   UNL     1     -13.902   4.721 -16.561  0.00  0.00    +0.306 C 
ATOM     11  N   UNL     1     -12.821   3.749 -16.571  0.00  0.00    -0.285 N 
ATOM     12  C   UNL     1     -11.411   4.000 -17.045  0.00  0.00    +0.109 C 
ATOM     13  C   UNL     1     -10.408   2.886 -17.004  0.00  0.00    +0.019 C 
ATOM     14  C   UNL     1     -11.377   1.775 -17.651  0.00  0.00    +0.003 C 
ATOM     15  C   UNL     1     -12.307   1.195 -16.471  0.00  0.00    +0.019 C 
ATOM     16  C   UNL     1     -13.310   2.310 -16.512  0.00  0.00    +0.109 C 
ATOM     17  O   UNL     1     -15.044   4.349 -16.280  0.00  0.00    -0.252 OA
ENDBRANCH   5   8
BRANCH   3  18
ATOM     18  N   UNL     1     -16.435   9.502 -14.599  0.00  0.00    +0.080 N 
ATOM     19  O   UNL     1     -16.014  10.629 -14.300  0.00  0.00    +0.041 OA
ATOM     20  O   UNL     1     -17.195   8.822 -13.895  0.00  0.00    -0.576 OA
ENDBRANCH   3  18
TORSDOF 2
ENDMDL
MODEL 8
REMARK VINA RESULT:      -6.2      3.524      4.186
REMARK  Name = min_compound919.pdb
REMARK  3 active torsions:
REMARK  status: ('A' for Active; 'I' for Inactive)
REMARK    1  A    between atoms: _1  and  _15
REMARK    2  A    between atoms: _2  and  _16
REMARK    3  A    between atoms: _6  and  _19
REMARK                            x       y       z     vdW  Elec       q    Type
REMARK                         _______ _______ _______ _____ _____    ______ ____
ROOT
ATOM      1  C   UNL     1     -18.806   3.618 -13.286  0.00  0.00    +0.027 A 
ATOM      2  C   UNL     1     -20.092   4.057 -12.648  0.00  0.00    +0.051 C 
ATOM      3  C   UNL     1     -17.548   3.419 -12.681  0.00  0.00    +0.278 A 
ATOM      4  C   UNL     1     -16.359   2.935 -13.399  0.00  0.00    +0.107 A 
ATOM      5  C   UNL     1     -16.358   2.621 -14.776  0.00  0.00    +0.041 A 
ATOM      6  C   UNL     1     -17.599   2.820 -15.389  0.00  0.00    +0.024 A 
ATOM      7  C   UNL     1     -18.767   3.294 -14.674  0.00  0.00    +0.012 A 
ENDROOT
BRANCH   5   8
ATOM      8  N   UNL     1     -15.132   2.140 -15.448  0.00  0.00    -0.269 N 
ATOM      9  H   UNL     1     -15.120   1.161 -15.692  0.00  0.00    +0.156 HD
ATOM     10  C   UNL     1     -13.991   2.888 -15.793  0.00  0.00    +0.306 C 
ATOM     11  N   UNL     1     -12.863   2.206 -16.405  0.00  0.00    -0.285 N 
ATOM     12  C   UNL     1     -12.731   0.716 -16.601  0.00  0.00    +0.109 C 
ATOM     13  C   UNL     1     -11.493   0.161 -17.241  0.00  0.00    +0.019 C 
ATOM     14  C   UNL     1     -10.458   1.038 -16.373  0.00  0.00    +0.003 C 
ATOM     15  C   UNL     1     -10.356   2.490 -17.061  0.00  0.00    +0.019 C 
ATOM     16  C   UNL     1     -11.594   3.045 -16.421  0.00  0.00    +0.109 C 
ATOM     17  O   UNL     1     -13.913   4.098 -15.567  0.00  0.00    -0.252 OA
ENDBRANCH   5   8
BRANCH   3  18
ATOM     18  N   UNL     1     -17.381   3.700 -11.251  0.00  0.00    +0.080 N 
ATOM     19  O   UNL     1     -17.174   4.878 -10.923  0.00  0.00    +0.041 OA
ATOM     20  O   UNL     1     -17.473   2.753 -10.457  0.00  0.00    -0.576 OA
ENDBRANCH   3  18
TORSDOF 2
ENDMDL
MODEL 9
REMARK VINA RESULT:      -6.2      7.878      9.700
REMARK  Name = min_compound919.pdb
REMARK  3 active torsions:
REMARK  status: ('A' for Active; 'I' for Inactive)
REMARK    1  A    between atoms: _1  and  _15
REMARK    2  A    between atoms: _2  and  _16
REMARK    3  A    between atoms: _6  and  _19
REMARK                            x       y       z     vdW  Elec       q    Type
REMARK                         _______ _______ _______ _____ _____    ______ ____
ROOT
ATOM      1  C   UNL     1     -16.291   1.972  -5.421  0.00  0.00    +0.027 A 
ATOM      2  C   UNL     1     -16.247   1.743  -3.938  0.00  0.00    +0.051 C 
ATOM      3  C   UNL     1     -15.623   1.263  -6.440  0.00  0.00    +0.278 A 
ATOM      4  C   UNL     1     -15.781   1.545  -7.875  0.00  0.00    +0.107 A 
ATOM      5  C   UNL     1     -16.620   2.562  -8.379  0.00  0.00    +0.041 A 
ATOM      6  C   UNL     1     -17.284   3.277  -7.377  0.00  0.00    +0.024 A 
ATOM      7  C   UNL     1     -17.127   2.991  -5.965  0.00  0.00    +0.012 A 
ENDROOT
BRANCH   5   8
ATOM      8  N   UNL     1     -16.740   2.803  -9.833  0.00  0.00    -0.269 N 
ATOM      9  H   UNL     1     -17.278   2.123 -10.348  0.00  0.00    +0.156 HD
ATOM     10  C   UNL     1     -16.199   3.870 -10.574  0.00  0.00    +0.306 C 
ATOM     11  N   UNL     1     -16.389   3.892 -12.014  0.00  0.00    -0.285 N 
ATOM     12  C   UNL     1     -17.014   2.795 -12.841  0.00  0.00    +0.109 C 
ATOM     13  C   UNL     1     -17.128   2.962 -14.327  0.00  0.00    +0.019 C 
ATOM     14  C   UNL     1     -15.622   3.489 -14.544  0.00  0.00    +0.003 C 
ATOM     15  C   UNL     1     -15.606   5.064 -14.207  0.00  0.00    +0.019 C 
ATOM     16  C   UNL     1     -15.492   4.897 -12.721  0.00  0.00    +0.109 C 
ATOM     17  O   UNL     1     -15.549   4.772 -10.038  0.00  0.00    -0.252 OA
ENDBRANCH   5   8
BRANCH   3  18
ATOM     18  N   UNL     1     -14.710   0.171  -6.082  0.00  0.00    +0.080 N 
ATOM     19  O   UNL     1     -15.102  -0.987  -6.286  0.00  0.00    +0.041 OA
ATOM     20  O   UNL     1     -13.602   0.470  -5.617  0.00  0.00    -0.576 OA
ENDBRANCH   3  18
TORSDOF 2
ENDMDL
