MODEL 1
REMARK VINA RESULT:      -5.7      0.000      0.000
REMARK  Name = min_compound965.pdb
REMARK  9 active torsions:
REMARK  status: ('A' for Active; 'I' for Inactive)
REMARK    1  A    between atoms: _1  and  _3
REMARK    2  A    between atoms: _1  and  _12
REMARK    3  A    between atoms: _6  and  _8
REMARK    4  A    between atoms: _7  and  _13
REMARK    5  A    between atoms: _8  and  _14
REMARK    6  A    between atoms: _11  and  _15
REMARK    7  A    between atoms: _11  and  _16
REMARK    8  A    between atoms: _15  and  _18
REMARK    9  A    between atoms: _16  and  _17
REMARK                            x       y       z     vdW  Elec       q    Type
REMARK                         _______ _______ _______ _____ _____    ______ ____
ROOT
ATOM      1  N   UNL     1     -13.474   3.705 -14.772  0.00  0.00    -0.266 N 
ATOM      2  H   UNL     1     -13.267   3.877 -13.812  0.00  0.00    +0.156 HD
ATOM      3  C   UNL     1     -14.807   3.442 -15.027  0.00  0.00    +0.307 C 
ATOM      4  N   UNL     1     -15.714   4.137 -14.224  0.00  0.00    -0.278 N 
ATOM      5  O   UNL     1     -15.191   2.665 -15.899  0.00  0.00    -0.252 OA
ENDROOT
BRANCH   1   8
ATOM      6  C   UNL     1     -10.423   1.812 -16.117  0.00  0.00    +0.122 A 
ATOM      7  C   UNL     1     -11.541   2.265 -15.378  0.00  0.00    +0.072 A 
ATOM      8  C   UNL     1     -12.386   3.472 -15.665  0.00  0.00    +0.080 A 
ATOM      9  C   UNL     1     -12.145   4.296 -16.811  0.00  0.00    +0.141 A 
ATOM     10  C   UNL     1     -11.015   3.831 -17.556  0.00  0.00    +0.051 A 
ATOM     11  C   UNL     1     -10.179   2.636 -17.223  0.00  0.00    +0.049 A 
BRANCH   6  12
ATOM     12  O   UNL     1      -9.742   0.629 -15.659  0.00  0.00    -0.495 OA
ATOM     13  C   UNL     1     -10.306  -0.689 -16.101  0.00  0.00    +0.277 C 
ENDBRANCH   6  12
BRANCH   9  14
ATOM     14  O   UNL     1     -12.818   5.501 -17.336  0.00  0.00    -0.493 OA
ATOM     15  C   UNL     1     -11.892   6.538 -17.898  0.00  0.00    +0.277 C 
ENDBRANCH   9  14
ENDBRANCH   1   8
BRANCH   4  16
ATOM     16  C   UNL     1     -15.342   5.210 -13.302  0.00  0.00    +0.136 C 
BRANCH  16  17
ATOM     17  C   UNL     1     -15.090   4.616 -11.945  0.00  0.00    -0.016 C 
ATOM     18  C   UNL     1     -15.719   4.999 -10.826  0.00  0.00    +0.005 C 
ENDBRANCH  16  17
ENDBRANCH   4  16
BRANCH   4  19
ATOM     19  C   UNL     1     -17.124   4.052 -14.614  0.00  0.00    +0.136 C 
BRANCH  19  20
ATOM     20  C   UNL     1     -17.889   3.132 -13.712  0.00  0.00    -0.016 C 
ATOM     21  C   UNL     1     -18.651   3.537 -12.687  0.00  0.00    +0.005 C 
ENDBRANCH  19  20
ENDBRANCH   4  19
TORSDOF 7
ENDMDL
MODEL 2
REMARK VINA RESULT:      -5.7      7.625     10.795
REMARK  Name = min_compound965.pdb
REMARK  9 active torsions:
REMARK  status: ('A' for Active; 'I' for Inactive)
REMARK    1  A    between atoms: _1  and  _3
REMARK    2  A    between atoms: _1  and  _12
REMARK    3  A    between atoms: _6  and  _8
REMARK    4  A    between atoms: _7  and  _13
REMARK    5  A    between atoms: _8  and  _14
REMARK    6  A    between atoms: _11  and  _15
REMARK    7  A    between atoms: _11  and  _16
REMARK    8  A    between atoms: _15  and  _18
REMARK    9  A    between atoms: _16  and  _17
REMARK                            x       y       z     vdW  Elec       q    Type
REMARK                         _______ _______ _______ _____ _____    ______ ____
ROOT
ATOM      1  N   UNL     1     -15.825   1.346  -6.234  0.00  0.00    -0.266 N 
ATOM      2  H   UNL     1     -15.330   2.027  -5.699  0.00  0.00    +0.156 HD
ATOM      3  C   UNL     1     -15.352   0.056  -6.086  0.00  0.00    +0.307 C 
ATOM      4  N   UNL     1     -14.873  -0.259  -4.812  0.00  0.00    -0.278 N 
ATOM      5  O   UNL     1     -15.353  -0.776  -6.992  0.00  0.00    -0.252 OA
ENDROOT
BRANCH   1   8
ATOM      6  C   UNL     1     -16.736   2.980  -9.580  0.00  0.00    +0.122 A 
ATOM      7  C   UNL     1     -16.079   2.460  -8.441  0.00  0.00    +0.072 A 
ATOM      8  C   UNL     1     -16.715   1.804  -7.250  0.00  0.00    +0.080 A 
ATOM      9  C   UNL     1     -18.130   1.593  -7.182  0.00  0.00    +0.141 A 
ATOM     10  C   UNL     1     -18.789   2.119  -8.339  0.00  0.00    +0.051 A 
ATOM     11  C   UNL     1     -18.121   2.793  -9.496  0.00  0.00    +0.049 A 
BRANCH   6  12
ATOM     12  O   UNL     1     -15.931   3.584 -10.610  0.00  0.00    -0.495 OA
ATOM     13  C   UNL     1     -15.833   5.080 -10.601  0.00  0.00    +0.277 C 
ENDBRANCH   6  12
BRANCH   9  14
ATOM     14  O   UNL     1     -19.000   0.968  -6.167  0.00  0.00    -0.493 OA
ATOM     15  C   UNL     1     -19.056  -0.529  -6.229  0.00  0.00    +0.277 C 
ENDBRANCH   9  14
ENDBRANCH   1   8
BRANCH   4  16
ATOM     16  C   UNL     1     -15.011   0.608  -3.643  0.00  0.00    +0.136 C 
BRANCH  16  17
ATOM     17  C   UNL     1     -13.692   1.275  -3.376  0.00  0.00    -0.016 C 
ATOM     18  C   UNL     1     -13.438   2.567  -3.621  0.00  0.00    +0.005 C 
ENDBRANCH  16  17
ENDBRANCH   4  16
BRANCH   4  19
ATOM     19  C   UNL     1     -14.574  -1.673  -4.563  0.00  0.00    +0.136 C 
BRANCH  19  20
ATOM     20  C   UNL     1     -14.966  -2.081  -3.176  0.00  0.00    -0.016 C 
ATOM     21  C   UNL     1     -14.577  -3.218  -2.582  0.00  0.00    +0.005 C 
ENDBRANCH  19  20
ENDBRANCH   4  19
TORSDOF 7
ENDMDL
MODEL 3
REMARK VINA RESULT:      -5.6      6.293      9.574
REMARK  Name = min_compound965.pdb
REMARK  9 active torsions:
REMARK  status: ('A' for Active; 'I' for Inactive)
REMARK    1  A    between atoms: _1  and  _3
REMARK    2  A    between atoms: _1  and  _12
REMARK    3  A    between atoms: _6  and  _8
REMARK    4  A    between atoms: _7  and  _13
REMARK    5  A    between atoms: _8  and  _14
REMARK    6  A    between atoms: _11  and  _15
REMARK    7  A    between atoms: _11  and  _16
REMARK    8  A    between atoms: _15  and  _18
REMARK    9  A    between atoms: _16  and  _17
REMARK                            x       y       z     vdW  Elec       q    Type
REMARK                         _______ _______ _______ _____ _____    ______ ____
ROOT
ATOM      1  N   UNL     1     -16.372   1.766  -7.821  0.00  0.00    -0.266 N 
ATOM      2  H   UNL     1     -16.128   0.818  -8.016  0.00  0.00    +0.156 HD
ATOM      3  C   UNL     1     -16.404   2.075  -6.474  0.00  0.00    +0.307 C 
ATOM      4  N   UNL     1     -15.457   1.413  -5.689  0.00  0.00    -0.278 N 
ATOM      5  O   UNL     1     -17.192   2.880  -5.981  0.00  0.00    -0.252 OA
ENDROOT
BRANCH   1   8
ATOM      6  C   UNL     1     -16.213   4.241 -10.743  0.00  0.00    +0.122 A 
ATOM      7  C   UNL     1     -15.933   3.391  -9.648  0.00  0.00    +0.072 A 
ATOM      8  C   UNL     1     -16.913   2.555  -8.878  0.00  0.00    +0.080 A 
ATOM      9  C   UNL     1     -18.298   2.508  -9.238  0.00  0.00    +0.141 A 
ATOM     10  C   UNL     1     -18.575   3.368 -10.349  0.00  0.00    +0.051 A 
ATOM     11  C   UNL     1     -17.573   4.209 -11.075  0.00  0.00    +0.049 A 
BRANCH   6  12
ATOM     12  O   UNL     1     -15.120   4.968 -11.334  0.00  0.00    -0.495 OA
ATOM     13  C   UNL     1     -14.945   4.837 -12.818  0.00  0.00    +0.277 C 
ENDBRANCH   6  12
BRANCH   9  14
ATOM     14  O   UNL     1     -19.451   1.772  -8.684  0.00  0.00    -0.493 OA
ATOM     15  C   UNL     1     -20.272   2.548  -7.698  0.00  0.00    +0.277 C 
ENDBRANCH   9  14
ENDBRANCH   1   8
BRANCH   4  16
ATOM     16  C   UNL     1     -14.372   0.593  -6.225  0.00  0.00    +0.136 C 
BRANCH  16  17
ATOM     17  C   UNL     1     -14.731  -0.856  -6.053  0.00  0.00    -0.016 C 
ATOM     18  C   UNL     1     -14.561  -1.545  -4.917  0.00  0.00    +0.005 C 
ENDBRANCH  16  17
ENDBRANCH   4  16
BRANCH   4  19
ATOM     19  C   UNL     1     -15.318   1.883  -4.307  0.00  0.00    +0.136 C 
BRANCH  19  20
ATOM     20  C   UNL     1     -13.884   2.137  -3.954  0.00  0.00    -0.016 C 
ATOM     21  C   UNL     1     -13.151   1.356  -3.151  0.00  0.00    +0.005 C 
ENDBRANCH  19  20
ENDBRANCH   4  19
TORSDOF 7
ENDMDL
MODEL 4
REMARK VINA RESULT:      -5.6      2.021      6.148
REMARK  Name = min_compound965.pdb
REMARK  9 active torsions:
REMARK  status: ('A' for Active; 'I' for Inactive)
REMARK    1  A    between atoms: _1  and  _3
REMARK    2  A    between atoms: _1  and  _12
REMARK    3  A    between atoms: _6  and  _8
REMARK    4  A    between atoms: _7  and  _13
REMARK    5  A    between atoms: _8  and  _14
REMARK    6  A    between atoms: _11  and  _15
REMARK    7  A    between atoms: _11  and  _16
REMARK    8  A    between atoms: _15  and  _18
REMARK    9  A    between atoms: _16  and  _17
REMARK                            x       y       z     vdW  Elec       q    Type
REMARK                         _______ _______ _______ _____ _____    ______ ____
ROOT
ATOM      1  N   UNL     1     -13.469   3.784 -15.529  0.00  0.00    -0.266 N 
ATOM      2  H   UNL     1     -12.625   4.300 -15.659  0.00  0.00    +0.156 HD
ATOM      3  C   UNL     1     -13.495   2.567 -16.182  0.00  0.00    +0.307 C 
ATOM      4  N   UNL     1     -12.268   1.904 -16.255  0.00  0.00    -0.278 N 
ATOM      5  O   UNL     1     -14.516   2.076 -16.663  0.00  0.00    -0.252 OA
ENDROOT
BRANCH   1   8
ATOM      6  C   UNL     1     -15.994   4.617 -12.767  0.00  0.00    +0.122 A 
ATOM      7  C   UNL     1     -14.945   4.085 -13.552  0.00  0.00    +0.072 A 
ATOM      8  C   UNL     1     -14.591   4.459 -14.962  0.00  0.00    +0.080 A 
ATOM      9  C   UNL     1     -15.303   5.485 -15.663  0.00  0.00    +0.141 A 
ATOM     10  C   UNL     1     -16.361   6.021 -14.862  0.00  0.00    +0.051 A 
ATOM     11  C   UNL     1     -16.701   5.602 -13.466  0.00  0.00    +0.049 A 
BRANCH   6  12
ATOM     12  O   UNL     1     -16.168   4.106 -11.433  0.00  0.00    -0.495 OA
ATOM     13  C   UNL     1     -15.979   5.078 -10.306  0.00  0.00    +0.277 C 
ENDBRANCH   6  12
BRANCH   9  14
ATOM     14  O   UNL     1     -15.156   6.058 -17.015  0.00  0.00    -0.493 OA
ATOM     15  C   UNL     1     -14.149   7.165 -17.118  0.00  0.00    +0.277 C 
ENDBRANCH   9  14
ENDBRANCH   1   8
BRANCH   4  16
ATOM     16  C   UNL     1     -11.060   2.330 -15.550  0.00  0.00    +0.136 C 
BRANCH  16  17
ATOM     17  C   UNL     1     -10.304   3.292 -16.421  0.00  0.00    -0.016 C 
ATOM     18  C   UNL     1      -9.977   4.540 -16.059  0.00  0.00    +0.005 C 
ENDBRANCH  16  17
ENDBRANCH   4  16
BRANCH   4  19
ATOM     19  C   UNL     1     -12.305   0.521 -16.740  0.00  0.00    +0.136 C 
BRANCH  19  20
ATOM     20  C   UNL     1     -11.043  -0.213 -16.405  0.00  0.00    -0.016 C 
ATOM     21  C   UNL     1     -10.197  -0.720 -17.313  0.00  0.00    +0.005 C 
ENDBRANCH  19  20
ENDBRANCH   4  19
TORSDOF 7
ENDMDL
MODEL 5
REMARK VINA RESULT:      -5.6      2.182      6.328
REMARK  Name = min_compound965.pdb
REMARK  9 active torsions:
REMARK  status: ('A' for Active; 'I' for Inactive)
REMARK    1  A    between atoms: _1  and  _3
REMARK    2  A    between atoms: _1  and  _12
REMARK    3  A    between atoms: _6  and  _8
REMARK    4  A    between atoms: _7  and  _13
REMARK    5  A    between atoms: _8  and  _14
REMARK    6  A    between atoms: _11  and  _15
REMARK    7  A    between atoms: _11  and  _16
REMARK    8  A    between atoms: _15  and  _18
REMARK    9  A    between atoms: _16  and  _17
REMARK                            x       y       z     vdW  Elec       q    Type
REMARK                         _______ _______ _______ _____ _____    ______ ____
ROOT
ATOM      1  N   UNL     1     -13.521   2.996 -16.006  0.00  0.00    -0.266 N 
ATOM      2  H   UNL     1     -13.998   2.122 -16.066  0.00  0.00    +0.156 HD
ATOM      3  C   UNL     1     -12.144   2.895 -16.062  0.00  0.00    +0.307 C 
ATOM      4  N   UNL     1     -11.655   1.879 -16.886  0.00  0.00    -0.278 N 
ATOM      5  O   UNL     1     -11.383   3.641 -15.447  0.00  0.00    -0.252 OA
ENDROOT
BRANCH   1   8
ATOM      6  C   UNL     1     -15.605   5.105 -13.575  0.00  0.00    +0.122 A 
ATOM      7  C   UNL     1     -14.848   4.096 -14.215  0.00  0.00    +0.072 A 
ATOM      8  C   UNL     1     -14.264   4.143 -15.598  0.00  0.00    +0.080 A 
ATOM      9  C   UNL     1     -14.394   5.306 -16.423  0.00  0.00    +0.141 A 
ATOM     10  C   UNL     1     -15.160   6.324 -15.769  0.00  0.00    +0.051 A 
ATOM     11  C   UNL     1     -15.749   6.229 -14.397  0.00  0.00    +0.049 A 
BRANCH   6  12
ATOM     12  O   UNL     1     -16.083   4.849 -12.242  0.00  0.00    -0.495 OA
ATOM     13  C   UNL     1     -15.045   4.655 -11.176  0.00  0.00    +0.277 C 
ENDBRANCH   6  12
BRANCH   9  14
ATOM     14  O   UNL     1     -13.912   5.627 -17.780  0.00  0.00    -0.493 OA
ATOM     15  C   UNL     1     -12.529   6.204 -17.831  0.00  0.00    +0.277 C 
ENDBRANCH   9  14
ENDBRANCH   1   8
BRANCH   4  16
ATOM     16  C   UNL     1     -12.484   1.080 -17.788  0.00  0.00    +0.136 C 
BRANCH  16  17
ATOM     17  C   UNL     1     -12.546   1.766 -19.123  0.00  0.00    -0.016 C 
ATOM     18  C   UNL     1     -13.609   2.444 -19.574  0.00  0.00    +0.005 C 
ENDBRANCH  16  17
ENDBRANCH   4  16
BRANCH   4  19
ATOM     19  C   UNL     1     -10.211   1.888 -17.140  0.00  0.00    +0.136 C 
BRANCH  19  20
ATOM     20  C   UNL     1      -9.641   0.503 -17.119  0.00  0.00    -0.016 C 
ATOM     21  C   UNL     1      -9.719  -0.334 -16.075  0.00  0.00    +0.005 C 
ENDBRANCH  19  20
ENDBRANCH   4  19
TORSDOF 7
ENDMDL
MODEL 6
REMARK VINA RESULT:      -5.4      1.545      2.260
REMARK  Name = min_compound965.pdb
REMARK  9 active torsions:
REMARK  status: ('A' for Active; 'I' for Inactive)
REMARK    1  A    between atoms: _1  and  _3
REMARK    2  A    between atoms: _1  and  _12
REMARK    3  A    between atoms: _6  and  _8
REMARK    4  A    between atoms: _7  and  _13
REMARK    5  A    between atoms: _8  and  _14
REMARK    6  A    between atoms: _11  and  _15
REMARK    7  A    between atoms: _11  and  _16
REMARK    8  A    between atoms: _15  and  _18
REMARK    9  A    between atoms: _16  and  _17
REMARK                            x       y       z     vdW  Elec       q    Type
REMARK                         _______ _______ _______ _____ _____    ______ ____
ROOT
ATOM      1  N   UNL     1     -13.522   3.439 -15.347  0.00  0.00    -0.266 N 
ATOM      2  H   UNL     1     -13.785   2.911 -14.543  0.00  0.00    +0.156 HD
ATOM      3  C   UNL     1     -14.525   4.250 -15.844  0.00  0.00    +0.307 C 
ATOM      4  N   UNL     1     -15.375   4.803 -14.883  0.00  0.00    -0.278 N 
ATOM      5  O   UNL     1     -14.672   4.491 -17.042  0.00  0.00    -0.252 OA
ENDROOT
BRANCH   1   8
ATOM      6  C   UNL     1     -10.910   1.021 -16.770  0.00  0.00    +0.122 A 
ATOM      7  C   UNL     1     -12.025   1.621 -16.141  0.00  0.00    +0.072 A 
ATOM      8  C   UNL     1     -12.313   3.089 -16.018  0.00  0.00    +0.080 A 
ATOM      9  C   UNL     1     -11.450   4.070 -16.604  0.00  0.00    +0.141 A 
ATOM     10  C   UNL     1     -10.325   3.457 -17.242  0.00  0.00    +0.051 A 
ATOM     11  C   UNL     1     -10.058   1.987 -17.321  0.00  0.00    +0.049 A 
BRANCH   6  12
ATOM     12  O   UNL     1     -10.820  -0.416 -16.765  0.00  0.00    -0.495 OA
ATOM     13  C   UNL     1      -9.700  -1.020 -15.972  0.00  0.00    +0.277 C 
ENDBRANCH   6  12
BRANCH   9  14
ATOM     14  O   UNL     1     -11.503   5.544 -16.656  0.00  0.00    -0.493 OA
ATOM     15  C   UNL     1     -11.835   6.110 -18.005  0.00  0.00    +0.277 C 
ENDBRANCH   9  14
ENDBRANCH   1   8
BRANCH   4  16
ATOM     16  C   UNL     1     -15.152   4.716 -13.441  0.00  0.00    +0.136 C 
BRANCH  16  17
ATOM     17  C   UNL     1     -16.280   3.941 -12.822  0.00  0.00    -0.016 C 
ATOM     18  C   UNL     1     -16.813   2.833 -13.354  0.00  0.00    +0.005 C 
ENDBRANCH  16  17
ENDBRANCH   4  16
BRANCH   4  19
ATOM     19  C   UNL     1     -16.302   5.836 -15.355  0.00  0.00    +0.136 C 
BRANCH  19  20
ATOM     20  C   UNL     1     -15.854   7.205 -14.942  0.00  0.00    -0.016 C 
ATOM     21  C   UNL     1     -15.151   8.039 -15.720  0.00  0.00    +0.005 C 
ENDBRANCH  19  20
ENDBRANCH   4  19
TORSDOF 7
ENDMDL
MODEL 7
REMARK VINA RESULT:      -5.4      2.454      6.666
REMARK  Name = min_compound965.pdb
REMARK  9 active torsions:
REMARK  status: ('A' for Active; 'I' for Inactive)
REMARK    1  A    between atoms: _1  and  _3
REMARK    2  A    between atoms: _1  and  _12
REMARK    3  A    between atoms: _6  and  _8
REMARK    4  A    between atoms: _7  and  _13
REMARK    5  A    between atoms: _8  and  _14
REMARK    6  A    between atoms: _11  and  _15
REMARK    7  A    between atoms: _11  and  _16
REMARK    8  A    between atoms: _15  and  _18
REMARK    9  A    between atoms: _16  and  _17
REMARK                            x       y       z     vdW  Elec       q    Type
REMARK                         _______ _______ _______ _____ _____    ______ ____
ROOT
ATOM      1  N   UNL     1     -14.298   4.133 -14.648  0.00  0.00    -0.266 N 
ATOM      2  H   UNL     1     -13.378   3.794 -14.466  0.00  0.00    +0.156 HD
ATOM      3  C   UNL     1     -14.375   5.027 -15.699  0.00  0.00    +0.307 C 
ATOM      4  N   UNL     1     -13.491   4.784 -16.753  0.00  0.00    -0.278 N 
ATOM      5  O   UNL     1     -15.164   5.970 -15.732  0.00  0.00    -0.252 OA
ENDROOT
BRANCH   1   8
ATOM      6  C   UNL     1     -15.964   4.472 -11.212  0.00  0.00    +0.122 A 
ATOM      7  C   UNL     1     -15.105   4.542 -12.333  0.00  0.00    +0.072 A 
ATOM      8  C   UNL     1     -15.310   3.894 -13.671  0.00  0.00    +0.080 A 
ATOM      9  C   UNL     1     -16.492   3.139 -13.961  0.00  0.00    +0.141 A 
ATOM     10  C   UNL     1     -17.358   3.075 -12.824  0.00  0.00    +0.051 A 
ATOM     11  C   UNL     1     -17.105   3.713 -11.494  0.00  0.00    +0.049 A 
BRANCH   6  12
ATOM     12  O   UNL     1     -15.569   5.163 -10.012  0.00  0.00    -0.495 OA
ATOM     13  C   UNL     1     -16.663   5.797  -9.205  0.00  0.00    +0.277 C 
ENDBRANCH   6  12
BRANCH   9  14
ATOM     14  O   UNL     1     -16.955   2.431 -15.171  0.00  0.00    -0.493 OA
ATOM     15  C   UNL     1     -17.712   3.285 -16.143  0.00  0.00    +0.277 C 
ENDBRANCH   9  14
ENDBRANCH   1   8
BRANCH   4  16
ATOM     16  C   UNL     1     -12.662   3.585 -16.871  0.00  0.00    +0.136 C 
BRANCH  16  17
ATOM     17  C   UNL     1     -11.218   3.996 -16.898  0.00  0.00    -0.016 C 
ATOM     18  C   UNL     1     -10.463   4.169 -15.805  0.00  0.00    +0.005 C 
ENDBRANCH  16  17
ENDBRANCH   4  16
BRANCH   4  19
ATOM     19  C   UNL     1     -13.700   5.574 -17.970  0.00  0.00    +0.136 C 
BRANCH  19  20
ATOM     20  C   UNL     1     -12.958   6.874 -17.915  0.00  0.00    -0.016 C 
ATOM     21  C   UNL     1     -11.885   7.168 -18.661  0.00  0.00    +0.005 C 
ENDBRANCH  19  20
ENDBRANCH   4  19
TORSDOF 7
ENDMDL
MODEL 8
REMARK VINA RESULT:      -5.2     12.568     15.047
REMARK  Name = min_compound965.pdb
REMARK  9 active torsions:
REMARK  status: ('A' for Active; 'I' for Inactive)
REMARK    1  A    between atoms: _1  and  _3
REMARK    2  A    between atoms: _1  and  _12
REMARK    3  A    between atoms: _6  and  _8
REMARK    4  A    between atoms: _7  and  _13
REMARK    5  A    between atoms: _8  and  _14
REMARK    6  A    between atoms: _11  and  _15
REMARK    7  A    between atoms: _11  and  _16
REMARK    8  A    between atoms: _15  and  _18
REMARK    9  A    between atoms: _16  and  _17
REMARK                            x       y       z     vdW  Elec       q    Type
REMARK                         _______ _______ _______ _____ _____    ______ ____
ROOT
ATOM      1  N   UNL     1     -15.124  -3.040  -3.120  0.00  0.00    -0.266 N 
ATOM      2  H   UNL     1     -14.929  -3.226  -4.080  0.00  0.00    +0.156 HD
ATOM      3  C   UNL     1     -14.827  -1.749  -2.723  0.00  0.00    +0.307 C 
ATOM      4  N   UNL     1     -15.039  -0.765  -3.691  0.00  0.00    -0.278 N 
ATOM      5  O   UNL     1     -14.415  -1.463  -1.599  0.00  0.00    -0.252 OA
ENDROOT
BRANCH   1   8
ATOM      6  C   UNL     1     -14.270  -6.275  -1.249  0.00  0.00    +0.122 A 
ATOM      7  C   UNL     1     -14.264  -5.116  -2.060  0.00  0.00    +0.072 A 
ATOM      8  C   UNL     1     -15.391  -4.145  -2.258  0.00  0.00    +0.080 A 
ATOM      9  C   UNL     1     -16.633  -4.292  -1.563  0.00  0.00    +0.141 A 
ATOM     10  C   UNL     1     -16.632  -5.464  -0.742  0.00  0.00    +0.051 A 
ATOM     11  C   UNL     1     -15.496  -6.426  -0.591  0.00  0.00    +0.049 A 
BRANCH   6  12
ATOM     12  O   UNL     1     -13.078  -7.081  -1.210  0.00  0.00    -0.495 OA
ATOM     13  C   UNL     1     -12.974  -8.185  -2.220  0.00  0.00    +0.277 C 
ENDBRANCH   6  12
BRANCH   9  14
ATOM     14  O   UNL     1     -17.873  -3.491  -1.550  0.00  0.00    -0.493 OA
ATOM     15  C   UNL     1     -17.889  -2.381  -0.542  0.00  0.00    +0.277 C 
ENDBRANCH   9  14
ENDBRANCH   1   8
BRANCH   4  16
ATOM     16  C   UNL     1     -15.700  -1.002  -4.974  0.00  0.00    +0.136 C 
BRANCH  16  17
ATOM     17  C   UNL     1     -14.671  -0.939  -6.066  0.00  0.00    -0.016 C 
ATOM     18  C   UNL     1     -14.594   0.044  -6.974  0.00  0.00    +0.005 C 
ENDBRANCH  16  17
ENDBRANCH   4  16
BRANCH   4  19
ATOM     19  C   UNL     1     -14.948   0.625  -3.233  0.00  0.00    +0.136 C 
BRANCH  19  20
ATOM     20  C   UNL     1     -13.589   1.200  -3.491  0.00  0.00    -0.016 C 
ATOM     21  C   UNL     1     -13.327   2.510  -3.595  0.00  0.00    +0.005 C 
ENDBRANCH  19  20
ENDBRANCH   4  19
TORSDOF 7
ENDMDL
MODEL 9
REMARK VINA RESULT:      -5.2      3.376      6.454
REMARK  Name = min_compound965.pdb
REMARK  9 active torsions:
REMARK  status: ('A' for Active; 'I' for Inactive)
REMARK    1  A    between atoms: _1  and  _3
REMARK    2  A    between atoms: _1  and  _12
REMARK    3  A    between atoms: _6  and  _8
REMARK    4  A    between atoms: _7  and  _13
REMARK    5  A    between atoms: _8  and  _14
REMARK    6  A    between atoms: _11  and  _15
REMARK    7  A    between atoms: _11  and  _16
REMARK    8  A    between atoms: _15  and  _18
REMARK    9  A    between atoms: _16  and  _17
REMARK                            x       y       z     vdW  Elec       q    Type
REMARK                         _______ _______ _______ _____ _____    ______ ____
ROOT
ATOM      1  N   UNL     1     -12.739   3.752 -18.187  0.00  0.00    -0.266 N 
ATOM      2  H   UNL     1     -12.054   4.208 -17.624  0.00  0.00    +0.156 HD
ATOM      3  C   UNL     1     -12.573   2.383 -18.282  0.00  0.00    +0.307 C 
ATOM      4  N   UNL     1     -12.074   1.763 -17.134  0.00  0.00    -0.278 N 
ATOM      5  O   UNL     1     -12.846   1.734 -19.291  0.00  0.00    -0.252 OA
ENDROOT
BRANCH   1   8
ATOM      6  C   UNL     1     -13.483   6.405 -20.852  0.00  0.00    +0.122 A 
ATOM      7  C   UNL     1     -12.881   5.517 -19.930  0.00  0.00    +0.072 A 
ATOM      8  C   UNL     1     -13.580   4.556 -19.013  0.00  0.00    +0.080 A 
ATOM      9  C   UNL     1     -15.004   4.415 -19.024  0.00  0.00    +0.141 A 
ATOM     10  C   UNL     1     -15.607   5.315 -19.960  0.00  0.00    +0.051 A 
ATOM     11  C   UNL     1     -14.877   6.280 -20.841  0.00  0.00    +0.049 A 
BRANCH   6  12
ATOM     12  O   UNL     1     -12.623   7.256 -21.633  0.00  0.00    -0.495 OA
ATOM     13  C   UNL     1     -11.286   6.696 -22.018  0.00  0.00    +0.277 C 
ENDBRANCH   6  12
BRANCH   9  14
ATOM     14  O   UNL     1     -15.930   3.552 -18.264  0.00  0.00    -0.493 OA
ATOM     15  C   UNL     1     -16.162   3.983 -16.846  0.00  0.00    +0.277 C 
ENDBRANCH   9  14
ENDBRANCH   1   8
BRANCH   4  16
ATOM     16  C   UNL     1     -11.905   2.432 -15.845  0.00  0.00    +0.136 C 
BRANCH  16  17
ATOM     17  C   UNL     1     -10.505   2.968 -15.759  0.00  0.00    -0.016 C 
ATOM     18  C   UNL     1     -10.191   4.270 -15.815  0.00  0.00    +0.005 C 
ENDBRANCH  16  17
ENDBRANCH   4  16
BRANCH   4  19
ATOM     19  C   UNL     1     -12.097   0.297 -17.127  0.00  0.00    +0.136 C 
BRANCH  19  20
ATOM     20  C   UNL     1     -10.731  -0.275 -17.354  0.00  0.00    -0.016 C 
ATOM     21  C   UNL     1      -9.912  -0.692 -16.380  0.00  0.00    +0.005 C 
ENDBRANCH  19  20
ENDBRANCH   4  19
TORSDOF 7
ENDMDL
