MODEL 1
REMARK VINA RESULT:      -6.3      0.000      0.000
REMARK  Name = min_compound916.pdb
REMARK  6 active torsions:
REMARK  status: ('A' for Active; 'I' for Inactive)
REMARK    1  A    between atoms: _6  and  _7
REMARK    2  A    between atoms: _7  and  _15
REMARK    3  A    between atoms: _8  and  _9
REMARK    4  A    between atoms: _8  and  _18
REMARK    5  A    between atoms: _15  and  _16
REMARK    6  A    between atoms: _17  and  _18
REMARK                            x       y       z     vdW  Elec       q    Type
REMARK                         _______ _______ _______ _____ _____    ______ ____
ROOT
ATOM      1  C   UNL     1     -13.895   3.516 -16.147  0.00  0.00    -0.019 C 
ATOM      2  C   UNL     1     -14.536   2.355 -15.925  0.00  0.00    -0.019 C 
ENDROOT
BRANCH   1   3
ATOM      3  C   UNL     1     -12.566   3.651 -16.827  0.00  0.00    +0.102 C 
BRANCH   3   4
ATOM      4  S   UNL     1     -11.251   3.282 -15.632  0.00  0.00    -0.102 S 
BRANCH   4   8
ATOM      5  C   UNL     1     -10.223  -0.855 -17.125  0.00  0.00    +0.020 A 
ATOM      6  C   UNL     1     -10.942   0.070 -17.860  0.00  0.00    +0.112 A 
ATOM      7  N   UNL     1     -11.258   1.303 -17.413  0.00  0.00    -0.249 NA
ATOM      8  C   UNL     1     -10.830   1.644 -16.177  0.00  0.00    +0.097 A 
ATOM      9  C   UNL     1     -10.096   0.781 -15.372  0.00  0.00    +0.035 A 
ATOM     10  C   UNL     1      -9.794  -0.490 -15.854  0.00  0.00    +0.004 A 
ENDBRANCH   4   8
ENDBRANCH   3   4
ENDBRANCH   1   3
BRANCH   2  11
ATOM     11  C   UNL     1     -15.878   2.272 -15.261  0.00  0.00    +0.102 C 
BRANCH  11  12
ATOM     12  S   UNL     1     -16.521   3.940 -14.967  0.00  0.00    -0.102 S 
BRANCH  12  13
ATOM     13  C   UNL     1     -16.246   3.987 -13.212  0.00  0.00    +0.097 A 
ATOM     14  N   UNL     1     -17.103   3.286 -12.435  0.00  0.00    -0.249 NA
ATOM     15  C   UNL     1     -16.897   3.321 -11.102  0.00  0.00    +0.112 A 
ATOM     16  C   UNL     1     -15.858   4.011 -10.502  0.00  0.00    +0.020 A 
ATOM     17  C   UNL     1     -14.984   4.719 -11.317  0.00  0.00    +0.004 A 
ATOM     18  C   UNL     1     -15.183   4.716 -12.695  0.00  0.00    +0.035 A 
ENDBRANCH  12  13
ENDBRANCH  11  12
ENDBRANCH   2  11
TORSDOF 6
ENDMDL
MODEL 2
REMARK VINA RESULT:      -6.2      1.229      7.316
REMARK  Name = min_compound916.pdb
REMARK  6 active torsions:
REMARK  status: ('A' for Active; 'I' for Inactive)
REMARK    1  A    between atoms: _6  and  _7
REMARK    2  A    between atoms: _7  and  _15
REMARK    3  A    between atoms: _8  and  _9
REMARK    4  A    between atoms: _8  and  _18
REMARK    5  A    between atoms: _15  and  _16
REMARK    6  A    between atoms: _17  and  _18
REMARK                            x       y       z     vdW  Elec       q    Type
REMARK                         _______ _______ _______ _____ _____    ______ ____
ROOT
ATOM      1  C   UNL     1     -14.813   2.585 -15.730  0.00  0.00    -0.019 C 
ATOM      2  C   UNL     1     -13.903   3.567 -15.611  0.00  0.00    -0.019 C 
ENDROOT
BRANCH   1   3
ATOM      3  C   UNL     1     -16.243   2.677 -15.292  0.00  0.00    +0.102 C 
BRANCH   3   4
ATOM      4  S   UNL     1     -16.576   4.364 -14.710  0.00  0.00    -0.102 S 
BRANCH   4   8
ATOM      5  C   UNL     1     -16.094   3.765 -10.260  0.00  0.00    +0.020 A 
ATOM      6  C   UNL     1     -15.338   4.656 -11.001  0.00  0.00    +0.112 A 
ATOM      7  N   UNL     1     -15.474   4.830 -12.332  0.00  0.00    -0.249 NA
ATOM      8  C   UNL     1     -16.416   4.092 -12.962  0.00  0.00    +0.097 A 
ATOM      9  C   UNL     1     -17.224   3.179 -12.295  0.00  0.00    +0.035 A 
ATOM     10  C   UNL     1     -17.054   3.011 -10.923  0.00  0.00    +0.004 A 
ENDBRANCH   4   8
ENDBRANCH   3   4
ENDBRANCH   1   3
BRANCH   2  11
ATOM     11  C   UNL     1     -12.487   3.436 -16.087  0.00  0.00    +0.102 C 
BRANCH  11  12
ATOM     12  S   UNL     1     -12.459   2.656 -17.722  0.00  0.00    -0.102 S 
BRANCH  12  13
ATOM     13  C   UNL     1     -11.441   1.262 -17.295  0.00  0.00    +0.097 A 
ATOM     14  N   UNL     1     -12.055   0.206 -16.715  0.00  0.00    -0.249 NA
ATOM     15  C   UNL     1     -11.284  -0.853 -16.389  0.00  0.00    +0.112 A 
ATOM     16  C   UNL     1      -9.922  -0.917 -16.633  0.00  0.00    +0.020 A 
ATOM     17  C   UNL     1      -9.312   0.175 -17.235  0.00  0.00    +0.004 A 
ATOM     18  C   UNL     1     -10.079   1.289 -17.566  0.00  0.00    +0.035 A 
ENDBRANCH  12  13
ENDBRANCH  11  12
ENDBRANCH   2  11
TORSDOF 6
ENDMDL
MODEL 3
REMARK VINA RESULT:      -6.2      1.292      1.665
REMARK  Name = min_compound916.pdb
REMARK  6 active torsions:
REMARK  status: ('A' for Active; 'I' for Inactive)
REMARK    1  A    between atoms: _6  and  _7
REMARK    2  A    between atoms: _7  and  _15
REMARK    3  A    between atoms: _8  and  _9
REMARK    4  A    between atoms: _8  and  _18
REMARK    5  A    between atoms: _15  and  _16
REMARK    6  A    between atoms: _17  and  _18
REMARK                            x       y       z     vdW  Elec       q    Type
REMARK                         _______ _______ _______ _____ _____    ______ ____
ROOT
ATOM      1  C   UNL     1     -13.196   3.676 -15.413  0.00  0.00    -0.019 C 
ATOM      2  C   UNL     1     -14.311   3.029 -15.792  0.00  0.00    -0.019 C 
ENDROOT
BRANCH   1   3
ATOM      3  C   UNL     1     -11.913   3.709 -16.187  0.00  0.00    +0.102 C 
BRANCH   3   4
ATOM      4  S   UNL     1     -12.133   2.790 -17.736  0.00  0.00    -0.102 S 
BRANCH   4   8
ATOM      5  C   UNL     1      -9.856  -0.956 -16.650  0.00  0.00    +0.020 A 
ATOM      6  C   UNL     1      -9.278   0.145 -17.256  0.00  0.00    +0.112 A 
ATOM      7  N   UNL     1      -9.959   1.262 -17.589  0.00  0.00    -0.249 NA
ATOM      8  C   UNL     1     -11.278   1.296 -17.298  0.00  0.00    +0.097 A 
ATOM      9  C   UNL     1     -11.939   0.238 -16.685  0.00  0.00    +0.035 A 
ATOM     10  C   UNL     1     -11.215  -0.907 -16.362  0.00  0.00    +0.004 A 
ENDBRANCH   4   8
ENDBRANCH   3   4
ENDBRANCH   1   3
BRANCH   2  11
ATOM     11  C   UNL     1     -15.581   3.044 -14.995  0.00  0.00    +0.102 C 
BRANCH  11  12
ATOM     12  S   UNL     1     -15.868   4.706 -14.331  0.00  0.00    -0.102 S 
BRANCH  12  13
ATOM     13  C   UNL     1     -16.152   4.233 -12.641  0.00  0.00    +0.097 A 
ATOM     14  N   UNL     1     -15.461   4.904 -11.691  0.00  0.00    -0.249 NA
ATOM     15  C   UNL     1     -15.675   4.546 -10.407  0.00  0.00    +0.112 A 
ATOM     16  C   UNL     1     -16.564   3.559 -10.020  0.00  0.00    +0.020 A 
ATOM     17  C   UNL     1     -17.269   2.886 -11.011  0.00  0.00    +0.004 A 
ATOM     18  C   UNL     1     -17.056   3.222 -12.345  0.00  0.00    +0.035 A 
ENDBRANCH  12  13
ENDBRANCH  11  12
ENDBRANCH   2  11
TORSDOF 6
ENDMDL
MODEL 4
REMARK VINA RESULT:      -6.0      5.548      8.276
REMARK  Name = min_compound916.pdb
REMARK  6 active torsions:
REMARK  status: ('A' for Active; 'I' for Inactive)
REMARK    1  A    between atoms: _6  and  _7
REMARK    2  A    between atoms: _7  and  _15
REMARK    3  A    between atoms: _8  and  _9
REMARK    4  A    between atoms: _8  and  _18
REMARK    5  A    between atoms: _15  and  _16
REMARK    6  A    between atoms: _17  and  _18
REMARK                            x       y       z     vdW  Elec       q    Type
REMARK                         _______ _______ _______ _____ _____    ______ ____
ROOT
ATOM      1  C   UNL     1     -16.509   2.079  -8.735  0.00  0.00    -0.019 C 
ATOM      2  C   UNL     1     -16.853   0.860  -8.285  0.00  0.00    -0.019 C 
ENDROOT
BRANCH   1   3
ATOM      3  C   UNL     1     -17.431   3.033  -9.432  0.00  0.00    +0.102 C 
BRANCH   3   4
ATOM      4  S   UNL     1     -16.473   4.459 -10.016  0.00  0.00    -0.102 S 
BRANCH   4   8
ATOM      5  C   UNL     1     -15.826   3.288 -14.330  0.00  0.00    +0.020 A 
ATOM      6  C   UNL     1     -15.020   4.182 -13.648  0.00  0.00    +0.112 A 
ATOM      7  N   UNL     1     -15.217   4.540 -12.361  0.00  0.00    -0.249 NA
ATOM      8  C   UNL     1     -16.259   3.976 -11.712  0.00  0.00    +0.097 A 
ATOM      9  C   UNL     1     -17.116   3.064 -12.318  0.00  0.00    +0.035 A 
ATOM     10  C   UNL     1     -16.896   2.721 -13.649  0.00  0.00    +0.004 A 
ENDBRANCH   4   8
ENDBRANCH   3   4
ENDBRANCH   1   3
BRANCH   2  11
ATOM     11  C   UNL     1     -15.901  -0.051  -7.570  0.00  0.00    +0.102 C 
BRANCH  11  12
ATOM     12  S   UNL     1     -14.396   0.857  -7.132  0.00  0.00    -0.102 S 
BRANCH  12  13
ATOM     13  C   UNL     1     -14.304   0.346  -5.432  0.00  0.00    +0.097 A 
ATOM     14  N   UNL     1     -14.700  -0.915  -5.146  0.00  0.00    -0.249 NA
ATOM     15  C   UNL     1     -14.633  -1.305  -3.856  0.00  0.00    +0.112 A 
ATOM     16  C   UNL     1     -14.167  -0.498  -2.831  0.00  0.00    +0.020 A 
ATOM     17  C   UNL     1     -13.758   0.791  -3.146  0.00  0.00    +0.004 A 
ATOM     18  C   UNL     1     -13.833   1.227  -4.467  0.00  0.00    +0.035 A 
ENDBRANCH  12  13
ENDBRANCH  11  12
ENDBRANCH   2  11
TORSDOF 6
ENDMDL
MODEL 5
REMARK VINA RESULT:      -5.8      4.616      7.810
REMARK  Name = min_compound916.pdb
REMARK  6 active torsions:
REMARK  status: ('A' for Active; 'I' for Inactive)
REMARK    1  A    between atoms: _6  and  _7
REMARK    2  A    between atoms: _7  and  _15
REMARK    3  A    between atoms: _8  and  _9
REMARK    4  A    between atoms: _8  and  _18
REMARK    5  A    between atoms: _15  and  _16
REMARK    6  A    between atoms: _17  and  _18
REMARK                            x       y       z     vdW  Elec       q    Type
REMARK                         _______ _______ _______ _____ _____    ______ ____
ROOT
ATOM      1  C   UNL     1     -11.823   6.350 -17.713  0.00  0.00    -0.019 C 
ATOM      2  C   UNL     1     -11.824   5.013 -17.577  0.00  0.00    -0.019 C 
ENDROOT
BRANCH   1   3
ATOM      3  C   UNL     1     -12.752   7.128 -18.594  0.00  0.00    +0.102 C 
BRANCH   3   4
ATOM      4  S   UNL     1     -13.209   6.105 -20.022  0.00  0.00    -0.102 S 
BRANCH   4   8
ATOM      5  C   UNL     1     -11.535   8.654 -23.353  0.00  0.00    +0.020 A 
ATOM      6  C   UNL     1     -12.855   8.246 -23.288  0.00  0.00    +0.112 A 
ATOM      7  N   UNL     1     -13.355   7.477 -22.298  0.00  0.00    -0.249 NA
ATOM      8  C   UNL     1     -12.508   7.101 -21.314  0.00  0.00    +0.097 A 
ATOM      9  C   UNL     1     -11.168   7.471 -21.297  0.00  0.00    +0.035 A 
ATOM     10  C   UNL     1     -10.676   8.255 -22.337  0.00  0.00    +0.004 A 
ENDBRANCH   4   8
ENDBRANCH   3   4
ENDBRANCH   1   3
BRANCH   2  11
ATOM     11  C   UNL     1     -10.890   4.278 -16.663  0.00  0.00    +0.102 C 
BRANCH  11  12
ATOM     12  S   UNL     1     -11.833   3.169 -15.584  0.00  0.00    -0.102 S 
BRANCH  12  13
ATOM     13  C   UNL     1     -11.162   1.636 -16.186  0.00  0.00    +0.097 A 
ATOM     14  N   UNL     1     -11.564   1.227 -17.411  0.00  0.00    -0.249 NA
ATOM     15  C   UNL     1     -11.057   0.063 -17.869  0.00  0.00    +0.112 A 
ATOM     16  C   UNL     1     -10.146  -0.708 -17.168  0.00  0.00    +0.020 A 
ATOM     17  C   UNL     1      -9.740  -0.267 -15.915  0.00  0.00    +0.004 A 
ATOM     18  C   UNL     1     -10.261   0.921 -15.409  0.00  0.00    +0.035 A 
ENDBRANCH  12  13
ENDBRANCH  11  12
ENDBRANCH   2  11
TORSDOF 6
ENDMDL
MODEL 6
REMARK VINA RESULT:      -5.8      2.036      2.391
REMARK  Name = min_compound916.pdb
REMARK  6 active torsions:
REMARK  status: ('A' for Active; 'I' for Inactive)
REMARK    1  A    between atoms: _6  and  _7
REMARK    2  A    between atoms: _7  and  _15
REMARK    3  A    between atoms: _8  and  _9
REMARK    4  A    between atoms: _8  and  _18
REMARK    5  A    between atoms: _15  and  _16
REMARK    6  A    between atoms: _17  and  _18
REMARK                            x       y       z     vdW  Elec       q    Type
REMARK                         _______ _______ _______ _____ _____    ______ ____
ROOT
ATOM      1  C   UNL     1     -15.040   3.548 -15.430  0.00  0.00    -0.019 C 
ATOM      2  C   UNL     1     -14.701   3.882 -14.173  0.00  0.00    -0.019 C 
ENDROOT
BRANCH   1   3
ATOM      3  C   UNL     1     -14.075   3.163 -16.511  0.00  0.00    +0.102 C 
BRANCH   3   4
ATOM      4  S   UNL     1     -12.385   3.504 -15.944  0.00  0.00    -0.102 S 
BRANCH   4   8
ATOM      5  C   UNL     1     -10.784  -0.706 -16.273  0.00  0.00    +0.020 A 
ATOM      6  C   UNL     1     -12.034  -0.323 -16.722  0.00  0.00    +0.112 A 
ATOM      7  N   UNL     1     -12.518   0.933 -16.617  0.00  0.00    -0.249 NA
ATOM      8  C   UNL     1     -11.719   1.861 -16.047  0.00  0.00    +0.097 A 
ATOM      9  C   UNL     1     -10.446   1.566 -15.573  0.00  0.00    +0.035 A 
ATOM     10  C   UNL     1      -9.976   0.260 -15.684  0.00  0.00    +0.004 A 
ENDBRANCH   4   8
ENDBRANCH   3   4
ENDBRANCH   1   3
BRANCH   2  11
ATOM     11  C   UNL     1     -15.705   4.238 -13.118  0.00  0.00    +0.102 C 
BRANCH  11  12
ATOM     12  S   UNL     1     -15.846   6.039 -12.989  0.00  0.00    -0.102 S 
BRANCH  12  13
ATOM     13  C   UNL     1     -16.516   6.101 -11.343  0.00  0.00    +0.097 A 
ATOM     14  N   UNL     1     -17.453   7.045 -11.096  0.00  0.00    -0.249 NA
ATOM     15  C   UNL     1     -17.962   7.094  -9.847  0.00  0.00    +0.112 A 
ATOM     16  C   UNL     1     -17.594   6.229  -8.830  0.00  0.00    +0.020 A 
ATOM     17  C   UNL     1     -16.636   5.262  -9.107  0.00  0.00    +0.004 A 
ATOM     18  C   UNL     1     -16.079   5.199 -10.382  0.00  0.00    +0.035 A 
ENDBRANCH  12  13
ENDBRANCH  11  12
ENDBRANCH   2  11
TORSDOF 6
ENDMDL
MODEL 7
REMARK VINA RESULT:      -5.7      5.613      9.425
REMARK  Name = min_compound916.pdb
REMARK  6 active torsions:
REMARK  status: ('A' for Active; 'I' for Inactive)
REMARK    1  A    between atoms: _6  and  _7
REMARK    2  A    between atoms: _7  and  _15
REMARK    3  A    between atoms: _8  and  _9
REMARK    4  A    between atoms: _8  and  _18
REMARK    5  A    between atoms: _15  and  _16
REMARK    6  A    between atoms: _17  and  _18
REMARK                            x       y       z     vdW  Elec       q    Type
REMARK                         _______ _______ _______ _____ _____    ______ ____
ROOT
ATOM      1  C   UNL     1     -16.754   0.667  -8.271  0.00  0.00    -0.019 C 
ATOM      2  C   UNL     1     -16.501   1.969  -8.483  0.00  0.00    -0.019 C 
ENDROOT
BRANCH   1   3
ATOM      3  C   UNL     1     -15.971  -0.226  -7.357  0.00  0.00    +0.102 C 
BRANCH   3   4
ATOM      4  S   UNL     1     -16.784  -0.271  -5.735  0.00  0.00    -0.102 S 
BRANCH   4   8
ATOM      5  C   UNL     1     -13.375   1.174  -3.149  0.00  0.00    +0.020 A 
ATOM      6  C   UNL     1     -13.945  -0.082  -3.037  0.00  0.00    +0.112 A 
ATOM      7  N   UNL     1     -14.969  -0.512  -3.803  0.00  0.00    -0.249 NA
ATOM      8  C   UNL     1     -15.448   0.340  -4.737  0.00  0.00    +0.097 A 
ATOM      9  C   UNL     1     -14.932   1.617  -4.922  0.00  0.00    +0.035 A 
ATOM     10  C   UNL     1     -13.882   2.039  -4.111  0.00  0.00    +0.004 A 
ENDBRANCH   4   8
ENDBRANCH   3   4
ENDBRANCH   1   3
BRANCH   2  11
ATOM     11  C   UNL     1     -17.329   2.830  -9.391  0.00  0.00    +0.102 C 
BRANCH  11  12
ATOM     12  S   UNL     1     -16.386   4.301  -9.869  0.00  0.00    -0.102 S 
BRANCH  12  13
ATOM     13  C   UNL     1     -16.227   3.921 -11.599  0.00  0.00    +0.097 A 
ATOM     14  N   UNL     1     -15.209   4.510 -12.267  0.00  0.00    -0.249 NA
ATOM     15  C   UNL     1     -15.087   4.223 -13.580  0.00  0.00    +0.112 A 
ATOM     16  C   UNL     1     -15.924   3.356 -14.260  0.00  0.00    +0.020 A 
ATOM     17  C   UNL     1     -16.959   2.755 -13.554  0.00  0.00    +0.004 A 
ATOM     18  C   UNL     1     -17.120   3.046 -12.202  0.00  0.00    +0.035 A 
ENDBRANCH  12  13
ENDBRANCH  11  12
ENDBRANCH   2  11
TORSDOF 6
ENDMDL
MODEL 8
REMARK VINA RESULT:      -5.5      2.893      3.501
REMARK  Name = min_compound916.pdb
REMARK  6 active torsions:
REMARK  status: ('A' for Active; 'I' for Inactive)
REMARK    1  A    between atoms: _6  and  _7
REMARK    2  A    between atoms: _7  and  _15
REMARK    3  A    between atoms: _8  and  _9
REMARK    4  A    between atoms: _8  and  _18
REMARK    5  A    between atoms: _15  and  _16
REMARK    6  A    between atoms: _17  and  _18
REMARK                            x       y       z     vdW  Elec       q    Type
REMARK                         _______ _______ _______ _____ _____    ______ ____
ROOT
ATOM      1  C   UNL     1     -14.041   3.575 -15.274  0.00  0.00    -0.019 C 
ATOM      2  C   UNL     1     -14.492   4.198 -14.172  0.00  0.00    -0.019 C 
ENDROOT
BRANCH   1   3
ATOM      3  C   UNL     1     -12.598   3.343 -15.604  0.00  0.00    +0.102 C 
BRANCH   3   4
ATOM      4  S   UNL     1     -12.462   2.846 -17.345  0.00  0.00    -0.102 S 
BRANCH   4   8
ATOM      5  C   UNL     1      -9.865  -0.816 -16.854  0.00  0.00    +0.020 A 
ATOM      6  C   UNL     1      -9.405   0.390 -17.352  0.00  0.00    +0.112 A 
ATOM      7  N   UNL     1     -10.182   1.483 -17.507  0.00  0.00    -0.249 NA
ATOM      8  C   UNL     1     -11.479   1.381 -17.141  0.00  0.00    +0.097 A 
ATOM      9  C   UNL     1     -12.023   0.211 -16.625  0.00  0.00    +0.035 A 
ATOM     10  C   UNL     1     -11.202  -0.905 -16.486  0.00  0.00    +0.004 A 
ENDBRANCH   4   8
ENDBRANCH   3   4
ENDBRANCH   1   3
BRANCH   2  11
ATOM     11  C   UNL     1     -15.950   4.386 -13.873  0.00  0.00    +0.102 C 
BRANCH  11  12
ATOM     12  S   UNL     1     -16.151   5.595 -12.539  0.00  0.00    -0.102 S 
BRANCH  12  13
ATOM     13  C   UNL     1     -16.622   6.979 -13.551  0.00  0.00    +0.097 A 
ATOM     14  N   UNL     1     -15.677   7.918 -13.787  0.00  0.00    -0.249 NA
ATOM     15  C   UNL     1     -16.033   8.970 -14.555  0.00  0.00    +0.112 A 
ATOM     16  C   UNL     1     -17.289   9.122 -15.118  0.00  0.00    +0.020 A 
ATOM     17  C   UNL     1     -18.242   8.143 -14.869  0.00  0.00    +0.004 A 
ATOM     18  C   UNL     1     -17.909   7.056 -14.066  0.00  0.00    +0.035 A 
ENDBRANCH  12  13
ENDBRANCH  11  12
ENDBRANCH   2  11
TORSDOF 6
ENDMDL
MODEL 9
REMARK VINA RESULT:      -5.5      4.105      4.667
REMARK  Name = min_compound916.pdb
REMARK  6 active torsions:
REMARK  status: ('A' for Active; 'I' for Inactive)
REMARK    1  A    between atoms: _6  and  _7
REMARK    2  A    between atoms: _7  and  _15
REMARK    3  A    between atoms: _8  and  _9
REMARK    4  A    between atoms: _8  and  _18
REMARK    5  A    between atoms: _15  and  _16
REMARK    6  A    between atoms: _17  and  _18
REMARK                            x       y       z     vdW  Elec       q    Type
REMARK                         _______ _______ _______ _____ _____    ______ ____
ROOT
ATOM      1  C   UNL     1     -12.447   4.967 -17.027  0.00  0.00    -0.019 C 
ATOM      2  C   UNL     1     -13.748   5.006 -17.363  0.00  0.00    -0.019 C 
ENDROOT
BRANCH   1   3
ATOM      3  C   UNL     1     -11.472   3.920 -17.473  0.00  0.00    +0.102 C 
BRANCH   3   4
ATOM      4  S   UNL     1     -12.383   2.416 -17.920  0.00  0.00    -0.102 S 
BRANCH   4   8
ATOM      5  C   UNL     1      -9.681  -0.708 -16.092  0.00  0.00    +0.020 A 
ATOM      6  C   UNL     1     -10.232  -0.814 -17.356  0.00  0.00    +0.112 A 
ATOM      7  N   UNL     1     -11.047   0.114 -17.901  0.00  0.00    -0.249 NA
ATOM      8  C   UNL     1     -11.322   1.210 -17.160  0.00  0.00    +0.097 A 
ATOM      9  C   UNL     1     -10.807   1.403 -15.884  0.00  0.00    +0.035 A 
ATOM     10  C   UNL     1      -9.978   0.424 -15.342  0.00  0.00    +0.004 A 
ENDBRANCH   4   8
ENDBRANCH   3   4
ENDBRANCH   1   3
BRANCH   2  11
ATOM     11  C   UNL     1     -14.681   6.089 -16.912  0.00  0.00    +0.102 C 
BRANCH  11  12
ATOM     12  S   UNL     1     -14.474   7.553 -17.960  0.00  0.00    -0.102 S 
BRANCH  12  13
ATOM     13  C   UNL     1     -15.387   8.693 -16.946  0.00  0.00    +0.097 A 
ATOM     14  N   UNL     1     -16.114   9.638 -17.586  0.00  0.00    -0.249 NA
ATOM     15  C   UNL     1     -16.807  10.505 -16.818  0.00  0.00    +0.112 A 
ATOM     16  C   UNL     1     -16.826  10.464 -15.435  0.00  0.00    +0.020 A 
ATOM     17  C   UNL     1     -16.078   9.482 -14.798  0.00  0.00    +0.004 A 
ATOM     18  C   UNL     1     -15.339   8.585 -15.563  0.00  0.00    +0.035 A 
ENDBRANCH  12  13
ENDBRANCH  11  12
ENDBRANCH   2  11
TORSDOF 6
ENDMDL
