MODEL 1
REMARK VINA RESULT:      -7.2      0.000      0.000
REMARK  Name = min_compound926.pdb
REMARK  6 active torsions:
REMARK  status: ('A' for Active; 'I' for Inactive)
REMARK    1  A    between atoms: _6  and  _8
REMARK    2  A    between atoms: _9  and  _15
REMARK    3  A    between atoms: _10  and  _16
REMARK    4  A    between atoms: _12  and  _19
REMARK    5  A    between atoms: _16  and  _17
REMARK    6  A    between atoms: _16  and  _18
REMARK                            x       y       z     vdW  Elec       q    Type
REMARK                         _______ _______ _______ _____ _____    ______ ____
ROOT
ATOM      1  C   UNL     1     -12.324   2.108 -17.577  0.00  0.00    +0.244 C 
ATOM      2  N   UNL     1     -12.499   3.106 -16.635  0.00  0.00    -0.308 N 
ATOM      3  H   UNL     1     -11.801   3.202 -15.910  0.00  0.00    +0.149 HD
ATOM      4  O   UNL     1     -12.891   2.109 -18.665  0.00  0.00    -0.270 OA
ENDROOT
BRANCH   2   5
ATOM      5  C   UNL     1     -13.229   4.347 -17.056  0.00  0.00    +0.077 C 
ATOM      6  C   UNL     1     -12.006   5.326 -17.326  0.00  0.00    +0.026 C 
ATOM      7  C   UNL     1     -12.461   6.783 -17.687  0.00  0.00    -0.012 C 
ATOM      8  C   UNL     1     -11.883   7.184 -19.054  0.00  0.00    +0.007 C 
ATOM      9  C   UNL     1     -14.008   7.019 -17.720  0.00  0.00    +0.004 C 
ATOM     10  C   UNL     1     -15.081   6.120 -16.635  0.00  0.00    +0.006 C 
ATOM     11  C   UNL     1     -14.351   4.879 -16.214  0.00  0.00    +0.012 C 
BRANCH  11  12
ATOM     12  C   UNL     1     -14.742   4.171 -14.951  0.00  0.00    -0.012 C 
ATOM     13  C   UNL     1     -15.243   4.956 -13.775  0.00  0.00    +0.007 C 
ATOM     14  C   UNL     1     -15.695   2.967 -15.212  0.00  0.00    +0.007 C 
ENDBRANCH  11  12
ENDBRANCH   2   5
BRANCH   1  18
ATOM     15  N   UNL     1      -9.586  -1.024 -16.598  0.00  0.00    -0.263 NA
ATOM     16  C   UNL     1      -9.165   0.087 -17.238  0.00  0.00    +0.111 A 
ATOM     17  C   UNL     1      -9.995   1.138 -17.584  0.00  0.00    +0.033 A 
ATOM     18  C   UNL     1     -11.345   1.041 -17.248  0.00  0.00    +0.040 A 
ATOM     19  C   UNL     1     -11.805  -0.087 -16.567  0.00  0.00    +0.033 A 
ATOM     20  C   UNL     1     -10.894  -1.085 -16.271  0.00  0.00    +0.111 A 
ENDBRANCH   1  18
TORSDOF 3
ENDMDL
MODEL 2
REMARK VINA RESULT:      -6.9      1.633      3.592
REMARK  Name = min_compound926.pdb
REMARK  6 active torsions:
REMARK  status: ('A' for Active; 'I' for Inactive)
REMARK    1  A    between atoms: _6  and  _8
REMARK    2  A    between atoms: _9  and  _15
REMARK    3  A    between atoms: _10  and  _16
REMARK    4  A    between atoms: _12  and  _19
REMARK    5  A    between atoms: _16  and  _17
REMARK    6  A    between atoms: _16  and  _18
REMARK                            x       y       z     vdW  Elec       q    Type
REMARK                         _______ _______ _______ _____ _____    ______ ____
ROOT
ATOM      1  C   UNL     1     -11.225   3.271 -16.457  0.00  0.00    +0.244 C 
ATOM      2  N   UNL     1     -12.137   3.745 -17.381  0.00  0.00    -0.308 N 
ATOM      3  H   UNL     1     -12.683   3.069 -17.900  0.00  0.00    +0.149 HD
ATOM      4  O   UNL     1     -10.770   3.963 -15.552  0.00  0.00    -0.270 OA
ENDROOT
BRANCH   2   5
ATOM      5  C   UNL     1     -12.764   5.084 -17.125  0.00  0.00    +0.077 C 
ATOM      6  C   UNL     1     -14.163   4.637 -16.517  0.00  0.00    +0.026 C 
ATOM      7  C   UNL     1     -15.121   5.848 -16.241  0.00  0.00    -0.012 C 
ATOM      8  C   UNL     1     -15.530   5.859 -14.759  0.00  0.00    +0.007 C 
ATOM      9  C   UNL     1     -14.547   7.260 -16.602  0.00  0.00    +0.004 C 
ATOM     10  C   UNL     1     -13.422   7.456 -17.955  0.00  0.00    +0.006 C 
ATOM     11  C   UNL     1     -12.796   6.118 -18.211  0.00  0.00    +0.012 C 
BRANCH  11  12
ATOM     12  C   UNL     1     -12.201   5.813 -19.554  0.00  0.00    -0.012 C 
ATOM     13  C   UNL     1     -13.021   5.112 -20.596  0.00  0.00    +0.007 C 
ATOM     14  C   UNL     1     -11.503   7.051 -20.193  0.00  0.00    +0.007 C 
ENDBRANCH  11  12
ENDBRANCH   2   5
BRANCH   1  18
ATOM     15  N   UNL     1     -10.188  -0.857 -16.840  0.00  0.00    -0.263 NA
ATOM     16  C   UNL     1      -9.926  -0.182 -15.702  0.00  0.00    +0.111 A 
ATOM     17  C   UNL     1     -10.235   1.153 -15.510  0.00  0.00    +0.033 A 
ATOM     18  C   UNL     1     -10.855   1.836 -16.555  0.00  0.00    +0.040 A 
ATOM     19  C   UNL     1     -11.158   1.157 -17.736  0.00  0.00    +0.033 A 
ATOM     20  C   UNL     1     -10.804  -0.176 -17.829  0.00  0.00    +0.111 A 
ENDBRANCH   1  18
TORSDOF 3
ENDMDL
MODEL 3
REMARK VINA RESULT:      -6.8      1.571      3.698
REMARK  Name = min_compound926.pdb
REMARK  6 active torsions:
REMARK  status: ('A' for Active; 'I' for Inactive)
REMARK    1  A    between atoms: _6  and  _8
REMARK    2  A    between atoms: _9  and  _15
REMARK    3  A    between atoms: _10  and  _16
REMARK    4  A    between atoms: _12  and  _19
REMARK    5  A    between atoms: _16  and  _17
REMARK    6  A    between atoms: _16  and  _18
REMARK                            x       y       z     vdW  Elec       q    Type
REMARK                         _______ _______ _______ _____ _____    ______ ____
ROOT
ATOM      1  C   UNL     1     -11.984   2.336 -15.869  0.00  0.00    +0.244 C 
ATOM      2  N   UNL     1     -13.314   2.384 -16.243  0.00  0.00    -0.308 N 
ATOM      3  H   UNL     1     -13.747   1.529 -16.568  0.00  0.00    +0.149 HD
ATOM      4  O   UNL     1     -11.459   3.187 -15.157  0.00  0.00    -0.270 OA
ENDROOT
BRANCH   2   5
ATOM      5  C   UNL     1     -14.198   3.387 -15.564  0.00  0.00    +0.077 C 
ATOM      6  C   UNL     1     -15.470   2.487 -15.248  0.00  0.00    +0.026 C 
ATOM      7  C   UNL     1     -16.652   3.303 -14.618  0.00  0.00    -0.012 C 
ATOM      8  C   UNL     1     -17.038   2.693 -13.261  0.00  0.00    +0.007 C 
ATOM      9  C   UNL     1     -16.383   4.831 -14.410  0.00  0.00    +0.004 C 
ATOM     10  C   UNL     1     -15.337   5.722 -15.526  0.00  0.00    +0.006 C 
ATOM     11  C   UNL     1     -14.453   4.719 -16.206  0.00  0.00    +0.012 C 
BRANCH  11  12
ATOM     12  C   UNL     1     -13.823   5.047 -17.527  0.00  0.00    -0.012 C 
ATOM     13  C   UNL     1     -14.648   5.664 -18.618  0.00  0.00    +0.007 C 
ATOM     14  C   UNL     1     -12.493   5.842 -17.373  0.00  0.00    +0.007 C 
ENDBRANCH  11  12
ENDBRANCH   2   5
BRANCH   1  18
ATOM     15  N   UNL     1      -9.783  -1.062 -17.236  0.00  0.00    -0.263 NA
ATOM     16  C   UNL     1      -9.587  -0.566 -15.997  0.00  0.00    +0.111 A 
ATOM     17  C   UNL     1     -10.265   0.529 -15.491  0.00  0.00    +0.033 A 
ATOM     18  C   UNL     1     -11.205   1.152 -16.311  0.00  0.00    +0.040 A 
ATOM     19  C   UNL     1     -11.444   0.646 -17.589  0.00  0.00    +0.033 A 
ATOM     20  C   UNL     1     -10.710  -0.451 -18.003  0.00  0.00    +0.111 A 
ENDBRANCH   1  18
TORSDOF 3
ENDMDL
MODEL 4
REMARK VINA RESULT:      -6.5      3.098      6.128
REMARK  Name = min_compound926.pdb
REMARK  6 active torsions:
REMARK  status: ('A' for Active; 'I' for Inactive)
REMARK    1  A    between atoms: _6  and  _8
REMARK    2  A    between atoms: _9  and  _15
REMARK    3  A    between atoms: _10  and  _16
REMARK    4  A    between atoms: _12  and  _19
REMARK    5  A    between atoms: _16  and  _17
REMARK    6  A    between atoms: _16  and  _18
REMARK                            x       y       z     vdW  Elec       q    Type
REMARK                         _______ _______ _______ _____ _____    ______ ____
ROOT
ATOM      1  C   UNL     1     -15.080   4.751 -14.122  0.00  0.00    +0.244 C 
ATOM      2  N   UNL     1     -14.234   3.879 -14.782  0.00  0.00    -0.308 N 
ATOM      3  H   UNL     1     -14.259   2.903 -14.518  0.00  0.00    +0.149 HD
ATOM      4  O   UNL     1     -15.386   5.852 -14.569  0.00  0.00    -0.270 OA
ENDROOT
BRANCH   2   5
ATOM      5  C   UNL     1     -13.866   4.198 -16.201  0.00  0.00    +0.077 C 
ATOM      6  C   UNL     1     -14.951   3.340 -16.983  0.00  0.00    +0.026 C 
ATOM      7  C   UNL     1     -14.753   3.379 -18.539  0.00  0.00    -0.012 C 
ATOM      8  C   UNL     1     -16.032   3.900 -19.212  0.00  0.00    +0.007 C 
ATOM      9  C   UNL     1     -13.546   4.239 -19.044  0.00  0.00    +0.004 C 
ATOM     10  C   UNL     1     -12.073   4.386 -18.072  0.00  0.00    +0.006 C 
ATOM     11  C   UNL     1     -12.442   4.066 -16.654  0.00  0.00    +0.012 C 
BRANCH  11  12
ATOM     12  C   UNL     1     -11.387   3.614 -15.689  0.00  0.00    -0.012 C 
ATOM     13  C   UNL     1     -11.117   2.150 -15.503  0.00  0.00    +0.007 C 
ATOM     14  C   UNL     1     -10.037   4.367 -15.884  0.00  0.00    +0.007 C 
ENDBRANCH  11  12
ENDBRANCH   2   5
BRANCH   1  18
ATOM     15  N   UNL     1     -16.740   3.435 -10.410  0.00  0.00    -0.263 NA
ATOM     16  C   UNL     1     -17.264   3.027 -11.585  0.00  0.00    +0.111 A 
ATOM     17  C   UNL     1     -16.777   3.413 -12.821  0.00  0.00    +0.033 A 
ATOM     18  C   UNL     1     -15.678   4.271 -12.851  0.00  0.00    +0.040 A 
ATOM     19  C   UNL     1     -15.102   4.691 -11.652  0.00  0.00    +0.033 A 
ATOM     20  C   UNL     1     -15.667   4.251 -10.469  0.00  0.00    +0.111 A 
ENDBRANCH   1  18
TORSDOF 3
ENDMDL
MODEL 5
REMARK VINA RESULT:      -6.4      1.842      3.410
REMARK  Name = min_compound926.pdb
REMARK  6 active torsions:
REMARK  status: ('A' for Active; 'I' for Inactive)
REMARK    1  A    between atoms: _6  and  _8
REMARK    2  A    between atoms: _9  and  _15
REMARK    3  A    between atoms: _10  and  _16
REMARK    4  A    between atoms: _12  and  _19
REMARK    5  A    between atoms: _16  and  _17
REMARK    6  A    between atoms: _16  and  _18
REMARK                            x       y       z     vdW  Elec       q    Type
REMARK                         _______ _______ _______ _____ _____    ______ ____
ROOT
ATOM      1  C   UNL     1     -11.863   3.027 -16.030  0.00  0.00    +0.244 C 
ATOM      2  N   UNL     1     -13.228   3.136 -16.221  0.00  0.00    -0.308 N 
ATOM      3  H   UNL     1     -13.767   2.284 -16.285  0.00  0.00    +0.149 HD
ATOM      4  O   UNL     1     -11.172   3.947 -15.604  0.00  0.00    -0.270 OA
ENDROOT
BRANCH   2   5
ATOM      5  C   UNL     1     -13.918   4.347 -15.667  0.00  0.00    +0.077 C 
ATOM      6  C   UNL     1     -14.607   3.724 -14.377  0.00  0.00    +0.026 C 
ATOM      7  C   UNL     1     -15.523   4.749 -13.620  0.00  0.00    -0.012 C 
ATOM      8  C   UNL     1     -15.052   4.888 -12.164  0.00  0.00    +0.007 C 
ATOM      9  C   UNL     1     -15.599   6.180 -14.250  0.00  0.00    +0.004 C 
ATOM     10  C   UNL     1     -15.474   6.401 -16.003  0.00  0.00    +0.006 C 
ATOM     11  C   UNL     1     -14.783   5.190 -16.557  0.00  0.00    +0.012 C 
BRANCH  11  12
ATOM     12  C   UNL     1     -14.957   4.822 -18.000  0.00  0.00    -0.012 C 
ATOM     13  C   UNL     1     -16.043   3.870 -18.405  0.00  0.00    +0.007 C 
ATOM     14  C   UNL     1     -14.989   6.068 -18.934  0.00  0.00    +0.007 C 
ENDBRANCH  11  12
ENDBRANCH   2   5
BRANCH   1  18
ATOM     15  N   UNL     1     -10.147  -0.789 -16.903  0.00  0.00    -0.263 NA
ATOM     16  C   UNL     1      -9.843  -0.139 -15.760  0.00  0.00    +0.111 A 
ATOM     17  C   UNL     1     -10.361   1.096 -15.415  0.00  0.00    +0.033 A 
ATOM     18  C   UNL     1     -11.252   1.701 -16.300  0.00  0.00    +0.040 A 
ATOM     19  C   UNL     1     -11.602   1.043 -17.479  0.00  0.00    +0.033 A 
ATOM     20  C   UNL     1     -11.024  -0.188 -17.734  0.00  0.00    +0.111 A 
ENDBRANCH   1  18
TORSDOF 3
ENDMDL
MODEL 6
REMARK VINA RESULT:      -6.3      2.492      6.194
REMARK  Name = min_compound926.pdb
REMARK  6 active torsions:
REMARK  status: ('A' for Active; 'I' for Inactive)
REMARK    1  A    between atoms: _6  and  _8
REMARK    2  A    between atoms: _9  and  _15
REMARK    3  A    between atoms: _10  and  _16
REMARK    4  A    between atoms: _12  and  _19
REMARK    5  A    between atoms: _16  and  _17
REMARK    6  A    between atoms: _16  and  _18
REMARK                            x       y       z     vdW  Elec       q    Type
REMARK                         _______ _______ _______ _____ _____    ______ ____
ROOT
ATOM      1  C   UNL     1     -15.166   2.807 -15.046  0.00  0.00    +0.244 C 
ATOM      2  N   UNL     1     -13.934   3.237 -15.502  0.00  0.00    -0.308 N 
ATOM      3  H   UNL     1     -13.403   3.865 -14.913  0.00  0.00    +0.149 HD
ATOM      4  O   UNL     1     -15.732   1.812 -15.487  0.00  0.00    -0.270 OA
ENDROOT
BRANCH   2   5
ATOM      5  C   UNL     1     -13.162   2.321 -16.404  0.00  0.00    +0.077 C 
ATOM      6  C   UNL     1     -11.738   2.351 -15.697  0.00  0.00    +0.026 C 
ATOM      7  C   UNL     1     -10.648   1.551 -16.492  0.00  0.00    -0.012 C 
ATOM      8  C   UNL     1     -10.041   0.463 -15.591  0.00  0.00    +0.007 C 
ATOM      9  C   UNL     1     -11.137   0.874 -17.816  0.00  0.00    +0.004 C 
ATOM     10  C   UNL     1     -12.414   1.619 -18.791  0.00  0.00    +0.006 C 
ATOM     11  C   UNL     1     -13.186   2.535 -17.888  0.00  0.00    +0.012 C 
BRANCH  11  12
ATOM     12  C   UNL     1     -13.983   3.665 -18.470  0.00  0.00    -0.012 C 
ATOM     13  C   UNL     1     -13.346   5.008 -18.668  0.00  0.00    +0.007 C 
ATOM     14  C   UNL     1     -14.738   3.256 -19.770  0.00  0.00    +0.007 C 
ENDBRANCH  11  12
ENDBRANCH   2   5
BRANCH   1  18
ATOM     15  N   UNL     1     -16.967   4.922 -11.797  0.00  0.00    -0.263 NA
ATOM     16  C   UNL     1     -15.887   5.423 -12.434  0.00  0.00    +0.111 A 
ATOM     17  C   UNL     1     -15.256   4.792 -13.491  0.00  0.00    +0.033 A 
ATOM     18  C   UNL     1     -15.770   3.570 -13.923  0.00  0.00    +0.040 A 
ATOM     19  C   UNL     1     -16.898   3.040 -13.298  0.00  0.00    +0.033 A 
ATOM     20  C   UNL     1     -17.453   3.746 -12.246  0.00  0.00    +0.111 A 
ENDBRANCH   1  18
TORSDOF 3
ENDMDL
MODEL 7
REMARK VINA RESULT:      -6.2      2.622      6.172
REMARK  Name = min_compound926.pdb
REMARK  6 active torsions:
REMARK  status: ('A' for Active; 'I' for Inactive)
REMARK    1  A    between atoms: _6  and  _8
REMARK    2  A    between atoms: _9  and  _15
REMARK    3  A    between atoms: _10  and  _16
REMARK    4  A    between atoms: _12  and  _19
REMARK    5  A    between atoms: _16  and  _17
REMARK    6  A    between atoms: _16  and  _18
REMARK                            x       y       z     vdW  Elec       q    Type
REMARK                         _______ _______ _______ _____ _____    ______ ____
ROOT
ATOM      1  C   UNL     1     -15.563   3.514 -14.631  0.00  0.00    +0.244 C 
ATOM      2  N   UNL     1     -14.235   3.678 -14.981  0.00  0.00    -0.308 N 
ATOM      3  H   UNL     1     -13.547   3.690 -14.240  0.00  0.00    +0.149 HD
ATOM      4  O   UNL     1     -16.423   3.148 -15.426  0.00  0.00    -0.270 OA
ENDROOT
BRANCH   2   5
ATOM      5  C   UNL     1     -13.795   3.167 -16.321  0.00  0.00    +0.077 C 
ATOM      6  C   UNL     1     -12.641   2.164 -15.884  0.00  0.00    +0.026 C 
ATOM      7  C   UNL     1     -11.888   1.534 -17.107  0.00  0.00    -0.012 C 
ATOM      8  C   UNL     1     -11.974   0.001 -17.036  0.00  0.00    +0.007 C 
ATOM      9  C   UNL     1     -12.390   1.990 -18.518  0.00  0.00    +0.004 C 
ATOM     10  C   UNL     1     -13.033   3.621 -18.763  0.00  0.00    +0.006 C 
ATOM     11  C   UNL     1     -13.473   4.132 -17.423  0.00  0.00    +0.012 C 
BRANCH  11  12
ATOM     12  C   UNL     1     -13.591   5.609 -17.185  0.00  0.00    -0.012 C 
ATOM     13  C   UNL     1     -12.527   6.537 -17.692  0.00  0.00    +0.007 C 
ATOM     14  C   UNL     1     -14.991   6.166 -17.577  0.00  0.00    +0.007 C 
ENDBRANCH  11  12
ENDBRANCH   2   5
BRANCH   1  18
ATOM     15  N   UNL     1     -16.495   4.223 -10.521  0.00  0.00    -0.263 NA
ATOM     16  C   UNL     1     -17.245   3.383 -11.265  0.00  0.00    +0.111 A 
ATOM     17  C   UNL     1     -17.000   3.109 -12.598  0.00  0.00    +0.033 A 
ATOM     18  C   UNL     1     -15.912   3.735 -13.204  0.00  0.00    +0.040 A 
ATOM     19  C   UNL     1     -15.106   4.591 -12.454  0.00  0.00    +0.033 A 
ATOM     20  C   UNL     1     -15.439   4.803 -11.129  0.00  0.00    +0.111 A 
ENDBRANCH   1  18
TORSDOF 3
ENDMDL
MODEL 8
REMARK VINA RESULT:      -6.0      8.656     11.878
REMARK  Name = min_compound926.pdb
REMARK  6 active torsions:
REMARK  status: ('A' for Active; 'I' for Inactive)
REMARK    1  A    between atoms: _6  and  _8
REMARK    2  A    between atoms: _9  and  _15
REMARK    3  A    between atoms: _10  and  _16
REMARK    4  A    between atoms: _12  and  _19
REMARK    5  A    between atoms: _16  and  _17
REMARK    6  A    between atoms: _16  and  _18
REMARK                            x       y       z     vdW  Elec       q    Type
REMARK                         _______ _______ _______ _____ _____    ______ ____
ROOT
ATOM      1  C   UNL     1     -16.984   2.986  -7.594  0.00  0.00    +0.244 C 
ATOM      2  N   UNL     1     -16.145   1.912  -7.365  0.00  0.00    -0.308 N 
ATOM      3  H   UNL     1     -15.307   1.836  -7.927  0.00  0.00    +0.149 HD
ATOM      4  O   UNL     1     -17.818   3.368  -6.778  0.00  0.00    -0.270 OA
ENDROOT
BRANCH   2   5
ATOM      5  C   UNL     1     -16.096   1.342  -5.978  0.00  0.00    +0.077 C 
ATOM      6  C   UNL     1     -14.533   1.401  -5.695  0.00  0.00    +0.026 C 
ATOM      7  C   UNL     1     -14.139   0.752  -4.322  0.00  0.00    -0.012 C 
ATOM      8  C   UNL     1     -13.395   1.782  -3.456  0.00  0.00    +0.007 C 
ATOM      9  C   UNL     1     -15.327   0.171  -3.483  0.00  0.00    +0.004 C 
ATOM     10  C   UNL     1     -16.744  -0.520  -4.287  0.00  0.00    +0.006 C 
ATOM     11  C   UNL     1     -16.792   0.049  -5.674  0.00  0.00    +0.012 C 
BRANCH  11  12
ATOM     12  C   UNL     1     -17.537  -0.675  -6.757  0.00  0.00    -0.012 C 
ATOM     13  C   UNL     1     -18.828  -0.119  -7.280  0.00  0.00    +0.007 C 
ATOM     14  C   UNL     1     -16.619  -1.064  -7.954  0.00  0.00    +0.007 C 
ENDBRANCH  11  12
ENDBRANCH   2   5
BRANCH   1  18
ATOM     15  N   UNL     1     -16.424   5.210 -11.200  0.00  0.00    -0.263 NA
ATOM     16  C   UNL     1     -16.487   3.862 -11.222  0.00  0.00    +0.111 A 
ATOM     17  C   UNL     1     -16.667   3.081 -10.095  0.00  0.00    +0.033 A 
ATOM     18  C   UNL     1     -16.793   3.728  -8.866  0.00  0.00    +0.040 A 
ATOM     19  C   UNL     1     -16.754   5.122  -8.816  0.00  0.00    +0.033 A 
ATOM     20  C   UNL     1     -16.565   5.811 -10.000  0.00  0.00    +0.111 A 
ENDBRANCH   1  18
TORSDOF 3
ENDMDL
MODEL 9
REMARK VINA RESULT:      -6.0     13.328     15.333
REMARK  Name = min_compound926.pdb
REMARK  6 active torsions:
REMARK  status: ('A' for Active; 'I' for Inactive)
REMARK    1  A    between atoms: _6  and  _8
REMARK    2  A    between atoms: _9  and  _15
REMARK    3  A    between atoms: _10  and  _16
REMARK    4  A    between atoms: _12  and  _19
REMARK    5  A    between atoms: _16  and  _17
REMARK    6  A    between atoms: _16  and  _18
REMARK                            x       y       z     vdW  Elec       q    Type
REMARK                         _______ _______ _______ _____ _____    ______ ____
ROOT
ATOM      1  C   UNL     1     -15.394  -2.534  -2.133  0.00  0.00    +0.244 C 
ATOM      2  N   UNL     1     -15.811  -2.071  -3.367  0.00  0.00    -0.308 N 
ATOM      3  H   UNL     1     -16.096  -2.752  -4.058  0.00  0.00    +0.149 HD
ATOM      4  O   UNL     1     -15.356  -1.827  -1.132  0.00  0.00    -0.270 OA
ENDROOT
BRANCH   2   5
ATOM      5  C   UNL     1     -16.457  -0.718  -3.426  0.00  0.00    +0.077 C 
ATOM      6  C   UNL     1     -17.691  -1.028  -4.380  0.00  0.00    +0.026 C 
ATOM      7  C   UNL     1     -18.524   0.254  -4.733  0.00  0.00    -0.012 C 
ATOM      8  C   UNL     1     -19.989   0.053  -4.312  0.00  0.00    +0.007 C 
ATOM      9  C   UNL     1     -18.010   1.590  -4.099  0.00  0.00    +0.004 C 
ATOM     10  C   UNL     1     -16.281   1.845  -3.813  0.00  0.00    +0.006 C 
ATOM     11  C   UNL     1     -15.635   0.492  -3.754  0.00  0.00    +0.012 C 
BRANCH  11  12
ATOM     12  C   UNL     1     -14.166   0.351  -4.022  0.00  0.00    -0.012 C 
ATOM     13  C   UNL     1     -13.682   0.069  -5.414  0.00  0.00    +0.007 C 
ATOM     14  C   UNL     1     -13.333   1.517  -3.413  0.00  0.00    +0.007 C 
ENDBRANCH  11  12
ENDBRANCH   2   5
BRANCH   1  18
ATOM     15  N   UNL     1     -14.305  -6.656  -1.839  0.00  0.00    -0.263 NA
ATOM     16  C   UNL     1     -15.589  -6.294  -2.043  0.00  0.00    +0.111 A 
ATOM     17  C   UNL     1     -16.010  -4.981  -2.148  0.00  0.00    +0.033 A 
ATOM     18  C   UNL     1     -15.049  -3.976  -2.040  0.00  0.00    +0.040 A 
ATOM     19  C   UNL     1     -13.711  -4.322  -1.851  0.00  0.00    +0.033 A 
ATOM     20  C   UNL     1     -13.394  -5.665  -1.754  0.00  0.00    +0.111 A 
ENDBRANCH   1  18
TORSDOF 3
ENDMDL
