MODEL 1
REMARK VINA RESULT:      -5.2      0.000      0.000
REMARK  Name = min_compound95.pdb
REMARK  4 active torsions:
REMARK  status: ('A' for Active; 'I' for Inactive)
REMARK    1  A    between atoms: _4  and  _8
REMARK    2  A    between atoms: _9  and  _10
REMARK    3  A    between atoms: _10  and  _11
REMARK    4  A    between atoms: _11  and  _12
REMARK                            x       y       z     vdW  Elec       q    Type
REMARK                         _______ _______ _______ _____ _____    ______ ____
ROOT
ATOM      1 CL   UNL     1     -14.075   1.107  -7.035  0.00  0.00    -0.060 Cl
ATOM      2  C   UNL     1     -14.127   0.452  -5.441  0.00  0.00    +0.155 A 
ATOM      3  C   UNL     1     -14.467  -0.876  -5.222  0.00  0.00    +0.102 A 
ATOM      4  C   UNL     1     -14.538  -1.224  -3.868  0.00  0.00    +0.144 A 
ATOM      5  N   UNL     1     -14.977  -2.539  -3.560  0.00  0.00    -0.325 N 
ATOM      6  H   UNL     1     -15.867  -2.665  -4.044  0.00  0.00    +0.148 HD
ATOM      7  N   UNL     1     -14.179  -0.380  -2.883  0.00  0.00    -0.219 NA
ATOM      8  C   UNL     1     -13.812   0.857  -3.247  0.00  0.00    +0.225 A 
ATOM      9  N   UNL     1     -13.777   1.337  -4.491  0.00  0.00    -0.222 NA
ENDROOT
BRANCH   3  10
ATOM     10  N   UNL     1     -14.937  -1.760  -6.226  0.00  0.00    -0.353 N 
ATOM     11  H   UNL     1     -15.761  -1.393  -6.700  0.00  0.00    +0.143 HD
ATOM     12  H   UNL     1     -14.183  -1.973  -6.881  0.00  0.00    +0.143 HD
ENDBRANCH   3  10
BRANCH   5  13
ATOM     13  C   UNL     1     -15.066  -2.822  -2.129  0.00  0.00    +0.130 C 
BRANCH  13  14
ATOM     14  C   UNL     1     -13.820  -3.582  -1.657  0.00  0.00    +0.174 C 
BRANCH  14  15
ATOM     15  O   UNL     1     -12.862  -2.703  -1.076  0.00  0.00    -0.393 OA
ATOM     16  H   UNL     1     -12.243  -2.431  -1.775  0.00  0.00    +0.209 HD
ENDBRANCH  14  15
ENDBRANCH  13  14
ENDBRANCH   5  13
TORSDOF 4
ENDMDL
MODEL 2
REMARK VINA RESULT:      -4.8     12.931     13.890
REMARK  Name = min_compound95.pdb
REMARK  4 active torsions:
REMARK  status: ('A' for Active; 'I' for Inactive)
REMARK    1  A    between atoms: _4  and  _8
REMARK    2  A    between atoms: _9  and  _10
REMARK    3  A    between atoms: _10  and  _11
REMARK    4  A    between atoms: _11  and  _12
REMARK                            x       y       z     vdW  Elec       q    Type
REMARK                         _______ _______ _______ _____ _____    ______ ____
ROOT
ATOM      1 CL   UNL     1     -11.706   5.788 -17.386  0.00  0.00    -0.060 Cl
ATOM      2  C   UNL     1     -11.718   4.072 -17.223  0.00  0.00    +0.155 A 
ATOM      3  C   UNL     1     -10.979   3.441 -16.231  0.00  0.00    +0.102 A 
ATOM      4  C   UNL     1     -11.038   2.044 -16.288  0.00  0.00    +0.144 A 
ATOM      5  N   UNL     1     -10.227   1.324 -15.370  0.00  0.00    -0.325 N 
ATOM      6  H   UNL     1      -9.278   1.681 -15.485  0.00  0.00    +0.148 HD
ATOM      7  N   UNL     1     -11.844   1.386 -17.142  0.00  0.00    -0.219 NA
ATOM      8  C   UNL     1     -12.551   2.130 -18.005  0.00  0.00    +0.225 A 
ATOM      9  N   UNL     1     -12.525   3.460 -18.107  0.00  0.00    -0.222 NA
ENDROOT
BRANCH   3  10
ATOM     10  N   UNL     1     -10.052   4.096 -15.381  0.00  0.00    -0.353 N 
ATOM     11  H   UNL     1     -10.363   5.034 -15.132  0.00  0.00    +0.143 HD
ATOM     12  H   UNL     1      -9.874   3.522 -14.556  0.00  0.00    +0.143 HD
ENDBRANCH   3  10
BRANCH   5  13
ATOM     13  C   UNL     1     -10.307  -0.128 -15.510  0.00  0.00    +0.130 C 
BRANCH  13  14
ATOM     14  C   UNL     1      -9.272  -0.626 -16.525  0.00  0.00    +0.174 C 
BRANCH  14  15
ATOM     15  O   UNL     1      -9.877  -0.943 -17.775  0.00  0.00    -0.393 OA
ATOM     16  H   UNL     1      -9.266  -1.521 -18.264  0.00  0.00    +0.209 HD
ENDBRANCH  14  15
ENDBRANCH  13  14
ENDBRANCH   5  13
TORSDOF 4
ENDMDL
MODEL 3
REMARK VINA RESULT:      -4.7     13.576     15.187
REMARK  Name = min_compound95.pdb
REMARK  4 active torsions:
REMARK  status: ('A' for Active; 'I' for Inactive)
REMARK    1  A    between atoms: _4  and  _8
REMARK    2  A    between atoms: _9  and  _10
REMARK    3  A    between atoms: _10  and  _11
REMARK    4  A    between atoms: _11  and  _12
REMARK                            x       y       z     vdW  Elec       q    Type
REMARK                         _______ _______ _______ _____ _____    ______ ____
ROOT
ATOM      1 CL   UNL     1     -10.006   0.507 -15.233  0.00  0.00    -0.060 Cl
ATOM      2  C   UNL     1     -11.133   1.424 -16.161  0.00  0.00    +0.155 A 
ATOM      3  C   UNL     1     -11.582   0.971 -17.395  0.00  0.00    +0.102 A 
ATOM      4  C   UNL     1     -12.430   1.870 -18.050  0.00  0.00    +0.144 A 
ATOM      5  N   UNL     1     -12.851   1.523 -19.362  0.00  0.00    -0.325 N 
ATOM      6  H   UNL     1     -12.002   1.328 -19.893  0.00  0.00    +0.148 HD
ATOM      7  N   UNL     1     -12.870   3.003 -17.473  0.00  0.00    -0.219 NA
ATOM      8  C   UNL     1     -12.400   3.284 -16.250  0.00  0.00    +0.225 A 
ATOM      9  N   UNL     1     -11.530   2.554 -15.551  0.00  0.00    -0.222 NA
ENDROOT
BRANCH   3  10
ATOM     10  N   UNL     1     -11.068  -0.168 -18.067  0.00  0.00    -0.353 N 
ATOM     11  H   UNL     1     -10.576  -0.794 -17.432  0.00  0.00    +0.143 HD
ATOM     12  H   UNL     1     -11.821  -0.644 -18.566  0.00  0.00    +0.143 HD
ENDBRANCH   3  10
BRANCH   5  13
ATOM     13  C   UNL     1     -13.703   2.523 -20.003  0.00  0.00    +0.130 C 
BRANCH  13  14
ATOM     14  C   UNL     1     -13.825   2.239 -21.505  0.00  0.00    +0.174 C 
BRANCH  14  15
ATOM     15  O   UNL     1     -13.195   1.011 -21.856  0.00  0.00    -0.393 OA
ATOM     16  H   UNL     1     -12.424   1.219 -22.411  0.00  0.00    +0.209 HD
ENDBRANCH  14  15
ENDBRANCH  13  14
ENDBRANCH   5  13
TORSDOF 4
ENDMDL
MODEL 4
REMARK VINA RESULT:      -4.7     13.056     13.896
REMARK  Name = min_compound95.pdb
REMARK  4 active torsions:
REMARK  status: ('A' for Active; 'I' for Inactive)
REMARK    1  A    between atoms: _4  and  _8
REMARK    2  A    between atoms: _9  and  _10
REMARK    3  A    between atoms: _10  and  _11
REMARK    4  A    between atoms: _11  and  _12
REMARK                            x       y       z     vdW  Elec       q    Type
REMARK                         _______ _______ _______ _____ _____    ______ ____
ROOT
ATOM      1 CL   UNL     1     -14.253   4.352 -19.257  0.00  0.00    -0.060 Cl
ATOM      2  C   UNL     1     -13.480   3.348 -18.089  0.00  0.00    +0.155 A 
ATOM      3  C   UNL     1     -12.840   2.174 -18.463  0.00  0.00    +0.102 A 
ATOM      4  C   UNL     1     -12.334   1.439 -17.385  0.00  0.00    +0.144 A 
ATOM      5  N   UNL     1     -11.754   0.176 -17.678  0.00  0.00    -0.325 N 
ATOM      6  H   UNL     1     -12.451  -0.343 -18.212  0.00  0.00    +0.148 HD
ATOM      7  N   UNL     1     -12.353   1.901 -16.121  0.00  0.00    -0.219 NA
ATOM      8  C   UNL     1     -12.952   3.082 -15.915  0.00  0.00    +0.225 A 
ATOM      9  N   UNL     1     -13.540   3.842 -16.840  0.00  0.00    -0.222 NA
ENDROOT
BRANCH   3  10
ATOM     10  N   UNL     1     -12.882   1.617 -19.767  0.00  0.00    -0.353 N 
ATOM     11  H   UNL     1     -13.789   1.759 -20.211  0.00  0.00    +0.143 HD
ATOM     12  H   UNL     1     -12.118   1.993 -20.329  0.00  0.00    +0.143 HD
ENDBRANCH   3  10
BRANCH   5  13
ATOM     13  C   UNL     1     -11.282  -0.554 -16.503  0.00  0.00    +0.130 C 
BRANCH  13  14
ATOM     14  C   UNL     1      -9.834  -0.166 -16.178  0.00  0.00    +0.174 C 
BRANCH  14  15
ATOM     15  O   UNL     1      -9.769   0.726 -15.070  0.00  0.00    -0.393 OA
ATOM     16  H   UNL     1      -9.110   0.378 -14.445  0.00  0.00    +0.209 HD
ENDBRANCH  14  15
ENDBRANCH  13  14
ENDBRANCH   5  13
TORSDOF 4
ENDMDL
MODEL 5
REMARK VINA RESULT:      -4.6     13.887     15.173
REMARK  Name = min_compound95.pdb
REMARK  4 active torsions:
REMARK  status: ('A' for Active; 'I' for Inactive)
REMARK    1  A    between atoms: _4  and  _8
REMARK    2  A    between atoms: _9  and  _10
REMARK    3  A    between atoms: _10  and  _11
REMARK    4  A    between atoms: _11  and  _12
REMARK                            x       y       z     vdW  Elec       q    Type
REMARK                         _______ _______ _______ _____ _____    ______ ____
ROOT
ATOM      1 CL   UNL     1     -10.035   0.574 -15.521  0.00  0.00    -0.060 Cl
ATOM      2  C   UNL     1     -10.974   1.560 -16.579  0.00  0.00    +0.155 A 
ATOM      3  C   UNL     1     -10.948   2.945 -16.479  0.00  0.00    +0.102 A 
ATOM      4  C   UNL     1     -11.826   3.589 -17.358  0.00  0.00    +0.144 A 
ATOM      5  N   UNL     1     -11.932   5.001 -17.247  0.00  0.00    -0.325 N 
ATOM      6  H   UNL     1     -12.145   5.196 -16.268  0.00  0.00    +0.148 HD
ATOM      7  N   UNL     1     -12.524   2.928 -18.300  0.00  0.00    -0.219 NA
ATOM      8  C   UNL     1     -12.403   1.593 -18.319  0.00  0.00    +0.225 A 
ATOM      9  N   UNL     1     -11.665   0.854 -17.490  0.00  0.00    -0.222 NA
ENDROOT
BRANCH   3  10
ATOM     10  N   UNL     1     -10.298   3.663 -15.443  0.00  0.00    -0.353 N 
ATOM     11  H   UNL     1     -10.293   4.666 -15.623  0.00  0.00    +0.143 HD
ATOM     12  H   UNL     1     -10.726   3.438 -14.544  0.00  0.00    +0.143 HD
ENDBRANCH   3  10
BRANCH   5  13
ATOM     13  C   UNL     1     -12.894   5.605 -18.167  0.00  0.00    +0.130 C 
BRANCH  13  14
ATOM     14  C   UNL     1     -12.801   7.134 -18.111  0.00  0.00    +0.174 C 
BRANCH  14  15
ATOM     15  O   UNL     1     -11.490   7.590 -18.430  0.00  0.00    -0.393 OA
ATOM     16  H   UNL     1     -11.570   8.265 -19.125  0.00  0.00    +0.209 HD
ENDBRANCH  14  15
ENDBRANCH  13  14
ENDBRANCH   5  13
TORSDOF 4
ENDMDL
MODEL 6
REMARK VINA RESULT:      -4.4     13.437     15.036
REMARK  Name = min_compound95.pdb
REMARK  4 active torsions:
REMARK  status: ('A' for Active; 'I' for Inactive)
REMARK    1  A    between atoms: _4  and  _8
REMARK    2  A    between atoms: _9  and  _10
REMARK    3  A    between atoms: _10  and  _11
REMARK    4  A    between atoms: _11  and  _12
REMARK                            x       y       z     vdW  Elec       q    Type
REMARK                         _______ _______ _______ _____ _____    ______ ____
ROOT
ATOM      1 CL   UNL     1     -11.093  -0.538 -17.049  0.00  0.00    -0.060 Cl
ATOM      2  C   UNL     1     -11.349   1.149 -16.797  0.00  0.00    +0.155 A 
ATOM      3  C   UNL     1     -12.063   1.910 -17.713  0.00  0.00    +0.102 A 
ATOM      4  C   UNL     1     -12.111   3.272 -17.397  0.00  0.00    +0.144 A 
ATOM      5  N   UNL     1     -12.738   4.133 -18.338  0.00  0.00    -0.325 N 
ATOM      6  H   UNL     1     -12.286   3.954 -19.235  0.00  0.00    +0.148 HD
ATOM      7  N   UNL     1     -11.623   3.767 -16.244  0.00  0.00    -0.219 NA
ATOM      8  C   UNL     1     -11.011   2.902 -15.423  0.00  0.00    +0.225 A 
ATOM      9  N   UNL     1     -10.830   1.599 -15.642  0.00  0.00    -0.222 NA
ENDROOT
BRANCH   3  10
ATOM     10  N   UNL     1     -12.508   1.439 -18.975  0.00  0.00    -0.353 N 
ATOM     11  H   UNL     1     -11.820   0.830 -19.416  0.00  0.00    +0.143 HD
ATOM     12  H   UNL     1     -13.415   0.982 -18.873  0.00  0.00    +0.143 HD
ENDBRANCH   3  10
BRANCH   5  13
ATOM     13  C   UNL     1     -12.718   5.546 -17.964  0.00  0.00    +0.130 C 
BRANCH  13  14
ATOM     14  C   UNL     1     -11.996   6.372 -19.036  0.00  0.00    +0.174 C 
BRANCH  14  15
ATOM     15  O   UNL     1     -11.531   7.612 -18.513  0.00  0.00    -0.393 OA
ATOM     16  H   UNL     1     -10.935   7.418 -17.769  0.00  0.00    +0.209 HD
ENDBRANCH  14  15
ENDBRANCH  13  14
ENDBRANCH   5  13
TORSDOF 4
ENDMDL
MODEL 7
REMARK VINA RESULT:      -4.3     12.761     13.754
REMARK  Name = min_compound95.pdb
REMARK  4 active torsions:
REMARK  status: ('A' for Active; 'I' for Inactive)
REMARK    1  A    between atoms: _4  and  _8
REMARK    2  A    between atoms: _9  and  _10
REMARK    3  A    between atoms: _10  and  _11
REMARK    4  A    between atoms: _11  and  _12
REMARK                            x       y       z     vdW  Elec       q    Type
REMARK                         _______ _______ _______ _____ _____    ______ ____
ROOT
ATOM      1 CL   UNL     1      -9.963  -0.999 -17.684  0.00  0.00    -0.060 Cl
ATOM      2  C   UNL     1     -10.554   0.438 -16.936  0.00  0.00    +0.155 A 
ATOM      3  C   UNL     1     -11.565   1.188 -17.521  0.00  0.00    +0.102 A 
ATOM      4  C   UNL     1     -11.871   2.362 -16.825  0.00  0.00    +0.144 A 
ATOM      5  N   UNL     1     -12.825   3.234 -17.414  0.00  0.00    -0.325 N 
ATOM      6  H   UNL     1     -12.500   3.415 -18.364  0.00  0.00    +0.148 HD
ATOM      7  N   UNL     1     -11.325   2.661 -15.632  0.00  0.00    -0.219 NA
ATOM      8  C   UNL     1     -10.403   1.811 -15.156  0.00  0.00    +0.225 A 
ATOM      9  N   UNL     1      -9.967   0.703 -15.756  0.00  0.00    -0.222 NA
ENDROOT
BRANCH   3  10
ATOM     10  N   UNL     1     -12.093   0.951 -18.816  0.00  0.00    -0.353 N 
ATOM     11  H   UNL     1     -13.071   1.231 -18.884  0.00  0.00    +0.143 HD
ATOM     12  H   UNL     1     -11.513   1.414 -19.517  0.00  0.00    +0.143 HD
ENDBRANCH   3  10
BRANCH   5  13
ATOM     13  C   UNL     1     -13.068   4.459 -16.655  0.00  0.00    +0.130 C 
BRANCH  13  14
ATOM     14  C   UNL     1     -14.373   4.345 -15.859  0.00  0.00    +0.174 C 
BRANCH  14  15
ATOM     15  O   UNL     1     -14.148   3.800 -14.563  0.00  0.00    -0.393 OA
ATOM     16  H   UNL     1     -13.314   3.301 -14.589  0.00  0.00    +0.209 HD
ENDBRANCH  14  15
ENDBRANCH  13  14
ENDBRANCH   5  13
TORSDOF 4
ENDMDL
MODEL 8
REMARK VINA RESULT:      -4.3     13.323     13.973
REMARK  Name = min_compound95.pdb
REMARK  4 active torsions:
REMARK  status: ('A' for Active; 'I' for Inactive)
REMARK    1  A    between atoms: _4  and  _8
REMARK    2  A    between atoms: _9  and  _10
REMARK    3  A    between atoms: _10  and  _11
REMARK    4  A    between atoms: _11  and  _12
REMARK                            x       y       z     vdW  Elec       q    Type
REMARK                         _______ _______ _______ _____ _____    ______ ____
ROOT
ATOM      1 CL   UNL     1     -12.544   5.639 -18.316  0.00  0.00    -0.060 Cl
ATOM      2  C   UNL     1     -11.934   4.246 -17.503  0.00  0.00    +0.155 A 
ATOM      3  C   UNL     1     -12.238   2.966 -17.946  0.00  0.00    +0.102 A 
ATOM      4  C   UNL     1     -11.729   1.951 -17.129  0.00  0.00    +0.144 A 
ATOM      5  N   UNL     1     -12.082   0.615 -17.460  0.00  0.00    -0.325 N 
ATOM      6  H   UNL     1     -13.100   0.595 -17.521  0.00  0.00    +0.148 HD
ATOM      7  N   UNL     1     -10.911   2.199 -16.089  0.00  0.00    -0.219 NA
ATOM      8  C   UNL     1     -10.653   3.485 -15.813  0.00  0.00    +0.225 A 
ATOM      9  N   UNL     1     -11.137   4.545 -16.463  0.00  0.00    -0.222 NA
ENDROOT
BRANCH   3  10
ATOM     10  N   UNL     1     -13.167   2.673 -18.977  0.00  0.00    -0.353 N 
ATOM     11  H   UNL     1     -12.724   2.663 -19.895  0.00  0.00    +0.143 HD
ATOM     12  H   UNL     1     -13.645   1.794 -18.773  0.00  0.00    +0.143 HD
ENDBRANCH   3  10
BRANCH   5  13
ATOM     13  C   UNL     1     -11.549  -0.390 -16.543  0.00  0.00    +0.130 C 
BRANCH  13  14
ATOM     14  C   UNL     1     -10.188  -0.896 -17.036  0.00  0.00    +0.174 C 
BRANCH  14  15
ATOM     15  O   UNL     1      -9.140  -0.527 -16.145  0.00  0.00    -0.393 OA
ATOM     16  H   UNL     1      -8.748   0.301 -16.470  0.00  0.00    +0.209 HD
ENDBRANCH  14  15
ENDBRANCH  13  14
ENDBRANCH   5  13
TORSDOF 4
ENDMDL
MODEL 9
REMARK VINA RESULT:      -4.2     12.374     13.567
REMARK  Name = min_compound95.pdb
REMARK  4 active torsions:
REMARK  status: ('A' for Active; 'I' for Inactive)
REMARK    1  A    between atoms: _4  and  _8
REMARK    2  A    between atoms: _9  and  _10
REMARK    3  A    between atoms: _10  and  _11
REMARK    4  A    between atoms: _11  and  _12
REMARK                            x       y       z     vdW  Elec       q    Type
REMARK                         _______ _______ _______ _____ _____    ______ ____
ROOT
ATOM      1 CL   UNL     1      -9.512  -0.755 -16.805  0.00  0.00    -0.060 Cl
ATOM      2  C   UNL     1     -10.704   0.462 -17.069  0.00  0.00    +0.155 A 
ATOM      3  C   UNL     1     -10.953   1.440 -16.116  0.00  0.00    +0.102 A 
ATOM      4  C   UNL     1     -12.003   2.301 -16.453  0.00  0.00    +0.144 A 
ATOM      5  N   UNL     1     -12.385   3.267 -15.483  0.00  0.00    -0.325 N 
ATOM      6  H   UNL     1     -12.562   2.752 -14.621  0.00  0.00    +0.148 HD
ATOM      7  N   UNL     1     -12.618   2.260 -17.649  0.00  0.00    -0.219 NA
ATOM      8  C   UNL     1     -12.231   1.298 -18.498  0.00  0.00    +0.225 A 
ATOM      9  N   UNL     1     -11.302   0.369 -18.269  0.00  0.00    -0.222 NA
ENDROOT
BRANCH   3  10
ATOM     10  N   UNL     1     -10.389   1.455 -14.814  0.00  0.00    -0.353 N 
ATOM     11  H   UNL     1      -9.411   1.167 -14.821  0.00  0.00    +0.143 HD
ATOM     12  H   UNL     1     -10.513   2.377 -14.394  0.00  0.00    +0.143 HD
ENDBRANCH   3  10
BRANCH   5  13
ATOM     13  C   UNL     1     -13.512   4.106 -15.884  0.00  0.00    +0.130 C 
BRANCH  13  14
ATOM     14  C   UNL     1     -14.741   3.799 -15.020  0.00  0.00    +0.174 C 
BRANCH  14  15
ATOM     15  O   UNL     1     -14.520   4.147 -13.657  0.00  0.00    -0.393 OA
ATOM     16  H   UNL     1     -14.429   3.323 -13.149  0.00  0.00    +0.209 HD
ENDBRANCH  14  15
ENDBRANCH  13  14
ENDBRANCH   5  13
TORSDOF 4
ENDMDL
