MODEL 1
REMARK VINA RESULT:      -7.7      0.000      0.000
REMARK  Name = min_compound944.pdb
REMARK  3 active torsions:
REMARK  status: ('A' for Active; 'I' for Inactive)
REMARK    1  A    between atoms: _14  and  _16
REMARK    2  A    between atoms: _17  and  _18
REMARK    3  A    between atoms: _18  and  _20
REMARK                            x       y       z     vdW  Elec       q    Type
REMARK                         _______ _______ _______ _____ _____    ______ ____
ROOT
ATOM      1  N   UNL     1     -12.128   1.720 -18.243  0.00  0.00    -0.250 NA
ATOM      2  C   UNL     1     -12.489   2.927 -17.777  0.00  0.00    +0.064 A 
ATOM      3  C   UNL     1     -13.374   3.906 -18.500  0.00  0.00    +0.164 C 
ATOM      4  N   UNL     1     -13.453   5.044 -17.580  0.00  0.00    -0.288 N 
ATOM      5  C   UNL     1     -14.190   6.146 -17.923  0.00  0.00    +0.240 C 
ATOM      6  O   UNL     1     -14.799   6.226 -18.987  0.00  0.00    -0.271 OA
ATOM      7  C   UNL     1     -12.680   4.811 -16.359  0.00  0.00    +0.145 C 
ATOM      8  C   UNL     1     -12.099   3.455 -16.555  0.00  0.00    -0.007 A 
ATOM      9  C   UNL     1     -11.279   2.710 -15.733  0.00  0.00    +0.017 A 
ATOM     10  C   UNL     1     -10.875   1.442 -16.177  0.00  0.00    +0.001 A 
ATOM     11  C   UNL     1     -10.040   0.628 -15.394  0.00  0.00    +0.010 A 
ATOM     12  C   UNL     1      -9.648  -0.629 -15.851  0.00  0.00    +0.001 A 
ATOM     13  C   UNL     1     -10.089  -1.078 -17.090  0.00  0.00    +0.002 A 
ATOM     14  C   UNL     1     -10.919  -0.270 -17.872  0.00  0.00    +0.028 A 
ATOM     15  C   UNL     1     -11.327   0.986 -17.446  0.00  0.00    +0.071 A 
ENDROOT
BRANCH   5  16
ATOM     16  C   UNL     1     -14.225   7.259 -16.942  0.00  0.00    +0.074 C 
ATOM     17  C   UNL     1     -15.289   7.383 -16.136  0.00  0.00    +0.096 C 
BRANCH  17  18
ATOM     18  C   UNL     1     -15.417   8.447 -15.136  0.00  0.00    +0.330 C 
ATOM     19  O   UNL     1     -15.648   8.264 -13.955  0.00  0.00    -0.246 OA
BRANCH  18  20
ATOM     20  O   UNL     1     -15.252   9.682 -15.636  0.00  0.00    -0.478 OA
ATOM     21  H   UNL     1     -16.080   9.833 -16.141  0.00  0.00    +0.295 HD
ENDBRANCH  18  20
ENDBRANCH  17  18
ENDBRANCH   5  16
TORSDOF 3
ENDMDL
MODEL 2
REMARK VINA RESULT:      -7.5      1.740      1.919
REMARK  Name = min_compound944.pdb
REMARK  3 active torsions:
REMARK  status: ('A' for Active; 'I' for Inactive)
REMARK    1  A    between atoms: _14  and  _16
REMARK    2  A    between atoms: _17  and  _18
REMARK    3  A    between atoms: _18  and  _20
REMARK                            x       y       z     vdW  Elec       q    Type
REMARK                         _______ _______ _______ _____ _____    ______ ____
ROOT
ATOM      1  N   UNL     1     -13.170   0.995 -16.313  0.00  0.00    -0.250 NA
ATOM      2  C   UNL     1     -13.527   2.290 -16.301  0.00  0.00    +0.064 A 
ATOM      3  C   UNL     1     -14.889   2.811 -15.930  0.00  0.00    +0.164 C 
ATOM      4  N   UNL     1     -14.756   4.262 -16.078  0.00  0.00    -0.288 N 
ATOM      5  C   UNL     1     -15.829   5.074 -15.821  0.00  0.00    +0.240 C 
ATOM      6  O   UNL     1     -16.918   4.633 -15.465  0.00  0.00    -0.271 OA
ATOM      7  C   UNL     1     -13.410   4.644 -16.509  0.00  0.00    +0.145 C 
ATOM      8  C   UNL     1     -12.690   3.347 -16.629  0.00  0.00    -0.007 A 
ATOM      9  C   UNL     1     -11.388   3.082 -17.000  0.00  0.00    +0.017 A 
ATOM     10  C   UNL     1     -10.969   1.743 -17.028  0.00  0.00    +0.001 A 
ATOM     11  C   UNL     1      -9.658   1.398 -17.397  0.00  0.00    +0.010 A 
ATOM     12  C   UNL     1      -9.259   0.063 -17.418  0.00  0.00    +0.001 A 
ATOM     13  C   UNL     1     -10.166  -0.933 -17.073  0.00  0.00    +0.002 A 
ATOM     14  C   UNL     1     -11.471  -0.592 -16.706  0.00  0.00    +0.028 A 
ATOM     15  C   UNL     1     -11.900   0.728 -16.674  0.00  0.00    +0.071 A 
ENDROOT
BRANCH   5  16
ATOM     16  C   UNL     1     -15.619   6.533 -15.992  0.00  0.00    +0.074 C 
ATOM     17  C   UNL     1     -15.975   7.363 -15.000  0.00  0.00    +0.096 C 
BRANCH  17  18
ATOM     18  C   UNL     1     -15.809   8.816 -15.074  0.00  0.00    +0.330 C 
ATOM     19  O   UNL     1     -16.229   9.605 -14.247  0.00  0.00    -0.246 OA
BRANCH  18  20
ATOM     20  O   UNL     1     -15.134   9.230 -16.158  0.00  0.00    -0.478 OA
ATOM     21  H   UNL     1     -15.844   9.410 -16.811  0.00  0.00    +0.295 HD
ENDBRANCH  18  20
ENDBRANCH  17  18
ENDBRANCH   5  16
TORSDOF 3
ENDMDL
MODEL 3
REMARK VINA RESULT:      -7.0      1.112      1.283
REMARK  Name = min_compound944.pdb
REMARK  3 active torsions:
REMARK  status: ('A' for Active; 'I' for Inactive)
REMARK    1  A    between atoms: _14  and  _16
REMARK    2  A    between atoms: _17  and  _18
REMARK    3  A    between atoms: _18  and  _20
REMARK                            x       y       z     vdW  Elec       q    Type
REMARK                         _______ _______ _______ _____ _____    ______ ____
ROOT
ATOM      1  N   UNL     1     -12.266   1.467 -18.406  0.00  0.00    -0.250 NA
ATOM      2  C   UNL     1     -12.836   2.631 -18.057  0.00  0.00    +0.064 A 
ATOM      3  C   UNL     1     -13.780   3.427 -18.918  0.00  0.00    +0.164 C 
ATOM      4  N   UNL     1     -14.106   4.590 -18.088  0.00  0.00    -0.288 N 
ATOM      5  C   UNL     1     -14.957   5.551 -18.567  0.00  0.00    +0.240 C 
ATOM      6  O   UNL     1     -15.468   5.481 -19.681  0.00  0.00    -0.271 OA
ATOM      7  C   UNL     1     -13.426   4.542 -16.792  0.00  0.00    +0.145 C 
ATOM      8  C   UNL     1     -12.642   3.278 -16.845  0.00  0.00    -0.007 A 
ATOM      9  C   UNL     1     -11.806   2.709 -15.907  0.00  0.00    +0.017 A 
ATOM     10  C   UNL     1     -11.186   1.492 -16.227  0.00  0.00    +0.001 A 
ATOM     11  C   UNL     1     -10.321   0.855 -15.321  0.00  0.00    +0.010 A 
ATOM     12  C   UNL     1      -9.714  -0.354 -15.656  0.00  0.00    +0.001 A 
ATOM     13  C   UNL     1      -9.967  -0.932 -16.895  0.00  0.00    +0.002 A 
ATOM     14  C   UNL     1     -10.827  -0.300 -17.798  0.00  0.00    +0.028 A 
ATOM     15  C   UNL     1     -11.448   0.904 -17.496  0.00  0.00    +0.071 A 
ENDROOT
BRANCH   5  16
ATOM     16  C   UNL     1     -15.241   6.699 -17.671  0.00  0.00    +0.074 C 
ATOM     17  C   UNL     1     -15.481   7.903 -18.212  0.00  0.00    +0.096 C 
BRANCH  17  18
ATOM     18  C   UNL     1     -15.771   9.096 -17.413  0.00  0.00    +0.330 C 
ATOM     19  O   UNL     1     -15.394   9.273 -16.269  0.00  0.00    -0.246 OA
BRANCH  18  20
ATOM     20  O   UNL     1     -16.509  10.014 -18.058  0.00  0.00    -0.478 OA
ATOM     21  H   UNL     1     -16.853  10.577 -17.332  0.00  0.00    +0.295 HD
ENDBRANCH  18  20
ENDBRANCH  17  18
ENDBRANCH   5  16
TORSDOF 3
ENDMDL
MODEL 4
REMARK VINA RESULT:      -6.5      4.348      7.551
REMARK  Name = min_compound944.pdb
REMARK  3 active torsions:
REMARK  status: ('A' for Active; 'I' for Inactive)
REMARK    1  A    between atoms: _14  and  _16
REMARK    2  A    between atoms: _17  and  _18
REMARK    3  A    between atoms: _18  and  _20
REMARK                            x       y       z     vdW  Elec       q    Type
REMARK                         _______ _______ _______ _____ _____    ______ ____
ROOT
ATOM      1  N   UNL     1     -15.257   5.129 -15.256  0.00  0.00    -0.250 NA
ATOM      2  C   UNL     1     -14.431   4.167 -15.701  0.00  0.00    +0.064 A 
ATOM      3  C   UNL     1     -13.076   4.403 -16.312  0.00  0.00    +0.164 C 
ATOM      4  N   UNL     1     -12.598   3.053 -16.623  0.00  0.00    -0.288 N 
ATOM      5  C   UNL     1     -11.372   2.883 -17.208  0.00  0.00    +0.240 C 
ATOM      6  O   UNL     1     -10.639   3.827 -17.488  0.00  0.00    -0.271 OA
ATOM      7  C   UNL     1     -13.572   2.029 -16.238  0.00  0.00    +0.145 C 
ATOM      8  C   UNL     1     -14.703   2.807 -15.664  0.00  0.00    -0.007 A 
ATOM      9  C   UNL     1     -15.903   2.377 -15.137  0.00  0.00    +0.017 A 
ATOM     10  C   UNL     1     -16.799   3.346 -14.659  0.00  0.00    +0.001 A 
ATOM     11  C   UNL     1     -18.040   2.981 -14.109  0.00  0.00    +0.010 A 
ATOM     12  C   UNL     1     -18.917   3.957 -13.640  0.00  0.00    +0.001 A 
ATOM     13  C   UNL     1     -18.561   5.298 -13.716  0.00  0.00    +0.002 A 
ATOM     14  C   UNL     1     -17.327   5.663 -14.263  0.00  0.00    +0.028 A 
ATOM     15  C   UNL     1     -16.430   4.717 -14.739  0.00  0.00    +0.071 A 
ENDROOT
BRANCH   5  16
ATOM     16  C   UNL     1     -10.955   1.487 -17.493  0.00  0.00    +0.074 C 
ATOM     17  C   UNL     1     -10.082   0.887 -16.670  0.00  0.00    +0.096 C 
BRANCH  17  18
ATOM     18  C   UNL     1      -9.610  -0.486 -16.867  0.00  0.00    +0.330 C 
ATOM     19  O   UNL     1      -9.712  -1.111 -17.906  0.00  0.00    -0.246 OA
BRANCH  18  20
ATOM     20  O   UNL     1      -9.035  -1.022 -15.779  0.00  0.00    -0.478 OA
ATOM     21  H   UNL     1      -8.143  -0.616 -15.772  0.00  0.00    +0.295 HD
ENDBRANCH  18  20
ENDBRANCH  17  18
ENDBRANCH   5  16
TORSDOF 3
ENDMDL
MODEL 5
REMARK VINA RESULT:      -6.5     13.036     14.952
REMARK  Name = min_compound944.pdb
REMARK  3 active torsions:
REMARK  status: ('A' for Active; 'I' for Inactive)
REMARK    1  A    between atoms: _14  and  _16
REMARK    2  A    between atoms: _17  and  _18
REMARK    3  A    between atoms: _18  and  _20
REMARK                            x       y       z     vdW  Elec       q    Type
REMARK                         _______ _______ _______ _____ _____    ______ ____
ROOT
ATOM      1  N   UNL     1     -17.206   1.890  -5.345  0.00  0.00    -0.250 NA
ATOM      2  C   UNL     1     -16.480   0.863  -4.872  0.00  0.00    +0.064 A 
ATOM      3  C   UNL     1     -16.647   0.237  -3.513  0.00  0.00    +0.164 C 
ATOM      4  N   UNL     1     -15.631  -0.820  -3.494  0.00  0.00    -0.288 N 
ATOM      5  C   UNL     1     -15.491  -1.609  -2.383  0.00  0.00    +0.240 C 
ATOM      6  O   UNL     1     -16.191  -1.469  -1.384  0.00  0.00    -0.271 OA
ATOM      7  C   UNL     1     -14.873  -0.868  -4.746  0.00  0.00    +0.145 C 
ATOM      8  C   UNL     1     -15.464   0.223  -5.566  0.00  0.00    -0.007 A 
ATOM      9  C   UNL     1     -15.151   0.649  -6.841  0.00  0.00    +0.017 A 
ATOM     10  C   UNL     1     -15.882   1.719  -7.377  0.00  0.00    +0.001 A 
ATOM     11  C   UNL     1     -15.618   2.207  -8.669  0.00  0.00    +0.010 A 
ATOM     12  C   UNL     1     -16.355   3.271  -9.186  0.00  0.00    +0.001 A 
ATOM     13  C   UNL     1     -17.357   3.852  -8.418  0.00  0.00    +0.002 A 
ATOM     14  C   UNL     1     -17.621   3.370  -7.133  0.00  0.00    +0.028 A 
ATOM     15  C   UNL     1     -16.907   2.312  -6.588  0.00  0.00    +0.071 A 
ENDROOT
BRANCH   5  16
ATOM     16  C   UNL     1     -14.443  -2.658  -2.436  0.00  0.00    +0.074 C 
ATOM     17  C   UNL     1     -13.917  -3.110  -1.289  0.00  0.00    +0.096 C 
BRANCH  17  18
ATOM     18  C   UNL     1     -12.878  -4.142  -1.237  0.00  0.00    +0.330 C 
ATOM     19  O   UNL     1     -13.039  -5.305  -1.560  0.00  0.00    -0.246 OA
BRANCH  18  20
ATOM     20  O   UNL     1     -11.693  -3.696  -0.791  0.00  0.00    -0.478 OA
ATOM     21  H   UNL     1     -11.708  -2.744  -1.026  0.00  0.00    +0.295 HD
ENDBRANCH  18  20
ENDBRANCH  17  18
ENDBRANCH   5  16
TORSDOF 3
ENDMDL
MODEL 6
REMARK VINA RESULT:      -6.4      9.489     10.404
REMARK  Name = min_compound944.pdb
REMARK  3 active torsions:
REMARK  status: ('A' for Active; 'I' for Inactive)
REMARK    1  A    between atoms: _14  and  _16
REMARK    2  A    between atoms: _17  and  _18
REMARK    3  A    between atoms: _18  and  _20
REMARK                            x       y       z     vdW  Elec       q    Type
REMARK                         _______ _______ _______ _____ _____    ______ ____
ROOT
ATOM      1  N   UNL     1     -17.384   1.404  -6.072  0.00  0.00    -0.250 NA
ATOM      2  C   UNL     1     -17.132   1.844  -7.316  0.00  0.00    +0.064 A 
ATOM      3  C   UNL     1     -18.167   2.357  -8.281  0.00  0.00    +0.164 C 
ATOM      4  N   UNL     1     -17.388   2.702  -9.472  0.00  0.00    -0.288 N 
ATOM      5  C   UNL     1     -18.021   3.206 -10.577  0.00  0.00    +0.240 C 
ATOM      6  O   UNL     1     -19.235   3.387 -10.615  0.00  0.00    -0.271 OA
ATOM      7  C   UNL     1     -15.961   2.433  -9.286  0.00  0.00    +0.145 C 
ATOM      8  C   UNL     1     -15.875   1.893  -7.902  0.00  0.00    -0.007 A 
ATOM      9  C   UNL     1     -14.781   1.464  -7.179  0.00  0.00    +0.017 A 
ATOM     10  C   UNL     1     -14.995   0.995  -5.874  0.00  0.00    +0.001 A 
ATOM     11  C   UNL     1     -13.928   0.542  -5.079  0.00  0.00    +0.010 A 
ATOM     12  C   UNL     1     -14.159   0.080  -3.785  0.00  0.00    +0.001 A 
ATOM     13  C   UNL     1     -15.453   0.068  -3.278  0.00  0.00    +0.002 A 
ATOM     14  C   UNL     1     -16.516   0.517  -4.067  0.00  0.00    +0.028 A 
ATOM     15  C   UNL     1     -16.321   0.984  -5.359  0.00  0.00    +0.071 A 
ENDROOT
BRANCH   5  16
ATOM     16  C   UNL     1     -17.167   3.532 -11.746  0.00  0.00    +0.074 C 
ATOM     17  C   UNL     1     -17.270   2.786 -12.856  0.00  0.00    +0.096 C 
BRANCH  17  18
ATOM     18  C   UNL     1     -16.471   3.028 -14.060  0.00  0.00    +0.330 C 
ATOM     19  O   UNL     1     -15.540   3.809 -14.129  0.00  0.00    -0.246 OA
BRANCH  18  20
ATOM     20  O   UNL     1     -16.855   2.299 -15.120  0.00  0.00    -0.478 OA
ATOM     21  H   UNL     1     -17.834   2.304 -15.056  0.00  0.00    +0.295 HD
ENDBRANCH  18  20
ENDBRANCH  17  18
ENDBRANCH   5  16
TORSDOF 3
ENDMDL
MODEL 7
REMARK VINA RESULT:      -6.3      7.417      8.990
REMARK  Name = min_compound944.pdb
REMARK  3 active torsions:
REMARK  status: ('A' for Active; 'I' for Inactive)
REMARK    1  A    between atoms: _14  and  _16
REMARK    2  A    between atoms: _17  and  _18
REMARK    3  A    between atoms: _18  and  _20
REMARK                            x       y       z     vdW  Elec       q    Type
REMARK                         _______ _______ _______ _____ _____    ______ ____
ROOT
ATOM      1  N   UNL     1     -17.473   3.020 -12.210  0.00  0.00    -0.250 NA
ATOM      2  C   UNL     1     -17.274   3.715 -11.078  0.00  0.00    +0.064 A 
ATOM      3  C   UNL     1     -18.164   3.668  -9.864  0.00  0.00    +0.164 C 
ATOM      4  N   UNL     1     -17.518   4.591  -8.927  0.00  0.00    -0.288 N 
ATOM      5  C   UNL     1     -18.071   4.804  -7.692  0.00  0.00    +0.240 C 
ATOM      6  O   UNL     1     -19.101   4.245  -7.327  0.00  0.00    -0.271 OA
ATOM      7  C   UNL     1     -16.306   5.184  -9.495  0.00  0.00    +0.145 C 
ATOM      8  C   UNL     1     -16.216   4.584 -10.855  0.00  0.00    -0.007 A 
ATOM      9  C   UNL     1     -15.280   4.771 -11.851  0.00  0.00    +0.017 A 
ATOM     10  C   UNL     1     -15.445   4.066 -13.052  0.00  0.00    +0.001 A 
ATOM     11  C   UNL     1     -14.532   4.207 -14.111  0.00  0.00    +0.010 A 
ATOM     12  C   UNL     1     -14.711   3.499 -15.297  0.00  0.00    +0.001 A 
ATOM     13  C   UNL     1     -15.802   2.648 -15.433  0.00  0.00    +0.002 A 
ATOM     14  C   UNL     1     -16.713   2.507 -14.382  0.00  0.00    +0.028 A 
ATOM     15  C   UNL     1     -16.563   3.197 -13.187  0.00  0.00    +0.071 A 
ENDROOT
BRANCH   5  16
ATOM     16  C   UNL     1     -17.362   5.751  -6.797  0.00  0.00    +0.074 C 
ATOM     17  C   UNL     1     -17.581   5.687  -5.475  0.00  0.00    +0.096 C 
BRANCH  17  18
ATOM     18  C   UNL     1     -16.931   6.578  -4.511  0.00  0.00    +0.330 C 
ATOM     19  O   UNL     1     -15.886   6.332  -3.936  0.00  0.00    -0.246 OA
BRANCH  18  20
ATOM     20  O   UNL     1     -17.594   7.726  -4.301  0.00  0.00    -0.478 OA
ATOM     21  H   UNL     1     -17.374   7.947  -3.372  0.00  0.00    +0.295 HD
ENDBRANCH  18  20
ENDBRANCH  17  18
ENDBRANCH   5  16
TORSDOF 3
ENDMDL
MODEL 8
REMARK VINA RESULT:      -6.2      3.697      7.433
REMARK  Name = min_compound944.pdb
REMARK  3 active torsions:
REMARK  status: ('A' for Active; 'I' for Inactive)
REMARK    1  A    between atoms: _14  and  _16
REMARK    2  A    between atoms: _17  and  _18
REMARK    3  A    between atoms: _18  and  _20
REMARK                            x       y       z     vdW  Elec       q    Type
REMARK                         _______ _______ _______ _____ _____    ______ ____
ROOT
ATOM      1  N   UNL     1     -15.867   5.474 -16.202  0.00  0.00    -0.250 NA
ATOM      2  C   UNL     1     -14.977   4.470 -16.270  0.00  0.00    +0.064 A 
ATOM      3  C   UNL     1     -14.444   3.870 -17.543  0.00  0.00    +0.164 C 
ATOM      4  N   UNL     1     -13.524   2.829 -17.075  0.00  0.00    -0.288 N 
ATOM      5  C   UNL     1     -12.848   2.060 -17.983  0.00  0.00    +0.240 C 
ATOM      6  O   UNL     1     -12.979   2.204 -19.196  0.00  0.00    -0.271 OA
ATOM      7  C   UNL     1     -13.470   2.768 -15.613  0.00  0.00    +0.145 C 
ATOM      8  C   UNL     1     -14.414   3.833 -15.174  0.00  0.00    -0.007 A 
ATOM      9  C   UNL     1     -14.774   4.236 -13.905  0.00  0.00    +0.017 A 
ATOM     10  C   UNL     1     -15.701   5.282 -13.783  0.00  0.00    +0.001 A 
ATOM     11  C   UNL     1     -16.114   5.746 -12.522  0.00  0.00    +0.010 A 
ATOM     12  C   UNL     1     -17.036   6.786 -12.420  0.00  0.00    +0.001 A 
ATOM     13  C   UNL     1     -17.549   7.367 -13.574  0.00  0.00    +0.002 A 
ATOM     14  C   UNL     1     -17.140   6.908 -14.829  0.00  0.00    +0.028 A 
ATOM     15  C   UNL     1     -16.223   5.874 -14.966  0.00  0.00    +0.071 A 
ENDROOT
BRANCH   5  16
ATOM     16  C   UNL     1     -11.934   1.026 -17.436  0.00  0.00    +0.074 C 
ATOM     17  C   UNL     1     -10.624   1.298 -17.343  0.00  0.00    +0.096 C 
BRANCH  17  18
ATOM     18  C   UNL     1      -9.644   0.345 -16.817  0.00  0.00    +0.330 C 
ATOM     19  O   UNL     1      -9.634  -0.080 -15.677  0.00  0.00    -0.246 OA
BRANCH  18  20
ATOM     20  O   UNL     1      -8.725  -0.039 -17.718  0.00  0.00    -0.478 OA
ATOM     21  H   UNL     1      -8.743  -1.018 -17.655  0.00  0.00    +0.295 HD
ENDBRANCH  18  20
ENDBRANCH  17  18
ENDBRANCH   5  16
TORSDOF 3
ENDMDL
MODEL 9
REMARK VINA RESULT:      -6.1     15.361     17.263
REMARK  Name = min_compound944.pdb
REMARK  3 active torsions:
REMARK  status: ('A' for Active; 'I' for Inactive)
REMARK    1  A    between atoms: _14  and  _16
REMARK    2  A    between atoms: _17  and  _18
REMARK    3  A    between atoms: _18  and  _20
REMARK                            x       y       z     vdW  Elec       q    Type
REMARK                         _______ _______ _______ _____ _____    ______ ____
ROOT
ATOM      1  N   UNL     1     -16.844  -0.453  -3.251  0.00  0.00    -0.250 NA
ATOM      2  C   UNL     1     -16.480  -1.703  -2.919  0.00  0.00    +0.064 A 
ATOM      3  C   UNL     1     -17.424  -2.859  -2.725  0.00  0.00    +0.164 C 
ATOM      4  N   UNL     1     -16.539  -3.973  -2.378  0.00  0.00    -0.288 N 
ATOM      5  C   UNL     1     -17.069  -5.210  -2.123  0.00  0.00    +0.240 C 
ATOM      6  O   UNL     1     -18.276  -5.432  -2.174  0.00  0.00    -0.271 OA
ATOM      7  C   UNL     1     -15.133  -3.564  -2.354  0.00  0.00    +0.145 C 
ATOM      8  C   UNL     1     -15.174  -2.119  -2.704  0.00  0.00    -0.007 A 
ATOM      9  C   UNL     1     -14.149  -1.204  -2.833  0.00  0.00    +0.017 A 
ATOM     10  C   UNL     1     -14.481   0.115  -3.178  0.00  0.00    +0.001 A 
ATOM     11  C   UNL     1     -13.489   1.100  -3.326  0.00  0.00    +0.010 A 
ATOM     12  C   UNL     1     -13.837   2.405  -3.669  0.00  0.00    +0.001 A 
ATOM     13  C   UNL     1     -15.173   2.732  -3.867  0.00  0.00    +0.002 A 
ATOM     14  C   UNL     1     -16.161   1.754  -3.719  0.00  0.00    +0.028 A 
ATOM     15  C   UNL     1     -15.849   0.446  -3.379  0.00  0.00    +0.071 A 
ENDROOT
BRANCH   5  16
ATOM     16  C   UNL     1     -16.112  -6.290  -1.779  0.00  0.00    +0.074 C 
ATOM     17  C   UNL     1     -14.981  -6.409  -2.490  0.00  0.00    +0.096 C 
BRANCH  17  18
ATOM     18  C   UNL     1     -13.975  -7.442  -2.228  0.00  0.00    +0.330 C 
ATOM     19  O   UNL     1     -13.509  -8.185  -3.071  0.00  0.00    -0.246 OA
BRANCH  18  20
ATOM     20  O   UNL     1     -13.592  -7.510  -0.943  0.00  0.00    -0.478 OA
ATOM     21  H   UNL     1     -13.976  -6.698  -0.549  0.00  0.00    +0.295 HD
ENDBRANCH  18  20
ENDBRANCH  17  18
ENDBRANCH   5  16
TORSDOF 3
ENDMDL
