MODEL 1
REMARK VINA RESULT:      -5.6      0.000      0.000
REMARK  Name = min_compound931.pdb
REMARK  1 active torsions:
REMARK  status: ('A' for Active; 'I' for Inactive)
REMARK    1  A    between atoms: _9  and  _13
REMARK                            x       y       z     vdW  Elec       q    Type
REMARK                         _______ _______ _______ _____ _____    ______ ____
ROOT
ATOM      1  C   UNL     1     -13.428   6.980 -18.558  0.00  0.00    +0.183 A 
ATOM      2  N   UNL     1     -12.230   7.277 -18.113  0.00  0.00    -0.148 NA
ATOM      3  N   UNL     1     -11.651   6.207 -17.460  0.00  0.00    -0.126 NA
ATOM      4  C   UNL     1     -12.423   5.142 -17.424  0.00  0.00    +0.191 A 
ATOM      5  N   UNL     1     -12.145   3.902 -16.858  0.00  0.00    -0.231 N 
ATOM      6  C   UNL     1     -10.907   3.726 -16.232  0.00  0.00    +0.232 C 
ATOM      7  C   UNL     1     -10.707   2.309 -15.736  0.00  0.00    +0.167 C 
ATOM      8  S   UNL     1     -12.022   1.305 -16.435  0.00  0.00    -0.123 S 
ATOM      9  O   UNL     1     -10.031   4.567 -16.055  0.00  0.00    -0.274 OA
ATOM     10  C   UNL     1     -13.021   2.752 -16.844  0.00  0.00    +0.178 C 
ATOM     11  S   UNL     1     -13.931   5.380 -18.223  0.00  0.00    -0.038 S 
ENDROOT
BRANCH  10  12
ATOM     12  C   UNL     1     -14.169   2.900 -15.871  0.00  0.00    +0.021 A 
ATOM     13  S   UNL     1     -14.168   4.077 -14.614  0.00  0.00    -0.099 S 
ATOM     14  C   UNL     1     -15.704   3.587 -14.053  0.00  0.00    +0.045 A 
ATOM     15  C   UNL     1     -16.218   2.548 -14.794  0.00  0.00    +0.008 A 
ATOM     16  C   UNL     1     -15.334   2.150 -15.838  0.00  0.00    +0.014 A 
ENDBRANCH  10  12
TORSDOF 1
ENDMDL
MODEL 2
REMARK VINA RESULT:      -5.6      2.406      4.096
REMARK  Name = min_compound931.pdb
REMARK  1 active torsions:
REMARK  status: ('A' for Active; 'I' for Inactive)
REMARK    1  A    between atoms: _9  and  _13
REMARK                            x       y       z     vdW  Elec       q    Type
REMARK                         _______ _______ _______ _____ _____    ______ ____
ROOT
ATOM      1  C   UNL     1     -10.338   0.955 -15.889  0.00  0.00    +0.183 A 
ATOM      2  N   UNL     1     -10.435   0.410 -17.079  0.00  0.00    -0.148 NA
ATOM      3  N   UNL     1     -11.378   1.052 -17.857  0.00  0.00    -0.126 NA
ATOM      4  C   UNL     1     -11.968   2.051 -17.237  0.00  0.00    +0.191 A 
ATOM      5  N   UNL     1     -12.949   2.905 -17.731  0.00  0.00    -0.231 N 
ATOM      6  C   UNL     1     -13.397   2.706 -19.041  0.00  0.00    +0.232 C 
ATOM      7  C   UNL     1     -14.401   3.755 -19.472  0.00  0.00    +0.167 C 
ATOM      8  S   UNL     1     -14.388   5.054 -18.232  0.00  0.00    -0.123 S 
ATOM      9  O   UNL     1     -13.075   1.810 -19.814  0.00  0.00    -0.274 OA
ATOM     10  C   UNL     1     -13.571   3.998 -17.017  0.00  0.00    +0.178 C 
ATOM     11  S   UNL     1     -11.379   2.288 -15.635  0.00  0.00    -0.038 S 
ENDROOT
BRANCH  10  12
ATOM     12  C   UNL     1     -14.555   3.529 -15.968  0.00  0.00    +0.021 A 
ATOM     13  S   UNL     1     -14.946   4.474 -14.583  0.00  0.00    -0.099 S 
ATOM     14  C   UNL     1     -16.033   3.296 -13.995  0.00  0.00    +0.045 A 
ATOM     15  C   UNL     1     -16.104   2.200 -14.823  0.00  0.00    +0.008 A 
ATOM     16  C   UNL     1     -15.251   2.332 -15.956  0.00  0.00    +0.014 A 
ENDBRANCH  10  12
TORSDOF 1
ENDMDL
MODEL 3
REMARK VINA RESULT:      -5.6     11.908     13.939
REMARK  Name = min_compound931.pdb
REMARK  1 active torsions:
REMARK  status: ('A' for Active; 'I' for Inactive)
REMARK    1  A    between atoms: _9  and  _13
REMARK                            x       y       z     vdW  Elec       q    Type
REMARK                         _______ _______ _______ _____ _____    ______ ____
ROOT
ATOM      1  C   UNL     1     -15.570  -3.160  -2.174  0.00  0.00    +0.183 A 
ATOM      2  N   UNL     1     -14.348  -2.806  -1.855  0.00  0.00    -0.148 NA
ATOM      3  N   UNL     1     -14.067  -1.518  -2.267  0.00  0.00    -0.126 NA
ATOM      4  C   UNL     1     -15.074  -0.942  -2.887  0.00  0.00    +0.191 A 
ATOM      5  N   UNL     1     -15.130   0.344  -3.417  0.00  0.00    -0.231 N 
ATOM      6  C   UNL     1     -13.995   1.152  -3.306  0.00  0.00    +0.232 C 
ATOM      7  C   UNL     1     -14.225   2.547  -3.849  0.00  0.00    +0.167 C 
ATOM      8  S   UNL     1     -15.989   2.727  -4.138  0.00  0.00    -0.123 S 
ATOM      9  O   UNL     1     -12.900   0.846  -2.844  0.00  0.00    -0.274 OA
ATOM     10  C   UNL     1     -16.261   0.943  -4.089  0.00  0.00    +0.178 C 
ATOM     11  S   UNL     1     -16.466  -1.953  -2.989  0.00  0.00    -0.038 S 
ENDROOT
BRANCH  10  12
ATOM     12  C   UNL     1     -16.474   0.396  -5.483  0.00  0.00    +0.021 A 
ATOM     13  S   UNL     1     -18.034  -0.013  -6.085  0.00  0.00    -0.099 S 
ATOM     14  C   UNL     1     -17.404  -0.502  -7.595  0.00  0.00    +0.045 A 
ATOM     15  C   UNL     1     -16.037  -0.365  -7.653  0.00  0.00    +0.008 A 
ATOM     16  C   UNL     1     -15.501   0.148  -6.437  0.00  0.00    +0.014 A 
ENDBRANCH  10  12
TORSDOF 1
ENDMDL
MODEL 4
REMARK VINA RESULT:      -5.2      4.715      5.833
REMARK  Name = min_compound931.pdb
REMARK  1 active torsions:
REMARK  status: ('A' for Active; 'I' for Inactive)
REMARK    1  A    between atoms: _9  and  _13
REMARK                            x       y       z     vdW  Elec       q    Type
REMARK                         _______ _______ _______ _____ _____    ______ ____
ROOT
ATOM      1  C   UNL     1     -16.023   8.903 -15.506  0.00  0.00    +0.183 A 
ATOM      2  N   UNL     1     -16.977   9.353 -14.727  0.00  0.00    -0.148 NA
ATOM      3  N   UNL     1     -17.166   8.537 -13.630  0.00  0.00    -0.126 NA
ATOM      4  C   UNL     1     -16.360   7.497 -13.613  0.00  0.00    +0.191 A 
ATOM      5  N   UNL     1     -16.280   6.492 -12.654  0.00  0.00    -0.231 N 
ATOM      6  C   UNL     1     -17.151   6.551 -11.563  0.00  0.00    +0.232 C 
ATOM      7  C   UNL     1     -16.897   5.444 -10.561  0.00  0.00    +0.167 C 
ATOM      8  S   UNL     1     -15.344   4.660 -11.009  0.00  0.00    -0.123 S 
ATOM      9  O   UNL     1     -18.048   7.364 -11.364  0.00  0.00    -0.274 OA
ATOM     10  C   UNL     1     -15.374   5.365 -12.670  0.00  0.00    +0.178 C 
ATOM     11  S   UNL     1     -15.282   7.462 -14.957  0.00  0.00    -0.038 S 
ENDROOT
BRANCH  10  12
ATOM     12  C   UNL     1     -15.759   4.316 -13.689  0.00  0.00    +0.021 A 
ATOM     13  S   UNL     1     -14.674   3.772 -14.910  0.00  0.00    -0.099 S 
ATOM     14  C   UNL     1     -15.824   2.687 -15.554  0.00  0.00    +0.045 A 
ATOM     15  C   UNL     1     -17.015   2.729 -14.867  0.00  0.00    +0.008 A 
ATOM     16  C   UNL     1     -16.980   3.668 -13.797  0.00  0.00    +0.014 A 
ENDBRANCH  10  12
TORSDOF 1
ENDMDL
MODEL 5
REMARK VINA RESULT:      -5.1      2.249      4.570
REMARK  Name = min_compound931.pdb
REMARK  1 active torsions:
REMARK  status: ('A' for Active; 'I' for Inactive)
REMARK    1  A    between atoms: _9  and  _13
REMARK                            x       y       z     vdW  Elec       q    Type
REMARK                         _______ _______ _______ _____ _____    ______ ____
ROOT
ATOM      1  C   UNL     1     -16.250   3.604 -15.077  0.00  0.00    +0.183 A 
ATOM      2  N   UNL     1     -16.144   2.316 -15.305  0.00  0.00    -0.148 NA
ATOM      3  N   UNL     1     -14.888   1.984 -15.772  0.00  0.00    -0.126 NA
ATOM      4  C   UNL     1     -14.088   3.022 -15.889  0.00  0.00    +0.191 A 
ATOM      5  N   UNL     1     -12.764   3.037 -16.318  0.00  0.00    -0.231 N 
ATOM      6  C   UNL     1     -12.177   1.823 -16.687  0.00  0.00    +0.232 C 
ATOM      7  C   UNL     1     -10.715   1.978 -17.051  0.00  0.00    +0.167 C 
ATOM      8  S   UNL     1     -10.208   3.628 -16.554  0.00  0.00    -0.123 S 
ATOM      9  O   UNL     1     -12.710   0.720 -16.744  0.00  0.00    -0.274 OA
ATOM     10  C   UNL     1     -11.914   4.202 -16.428  0.00  0.00    +0.178 C 
ATOM     11  S   UNL     1     -14.830   4.499 -15.405  0.00  0.00    -0.038 S 
ENDROOT
BRANCH  10  12
ATOM     12  C   UNL     1     -12.271   5.079 -17.608  0.00  0.00    +0.021 A 
ATOM     13  S   UNL     1     -13.018   4.456 -19.028  0.00  0.00    -0.099 S 
ATOM     14  C   UNL     1     -13.058   5.994 -19.770  0.00  0.00    +0.045 A 
ATOM     15  C   UNL     1     -12.515   6.970 -18.967  0.00  0.00    +0.008 A 
ATOM     16  C   UNL     1     -12.059   6.444 -17.725  0.00  0.00    +0.014 A 
ENDBRANCH  10  12
TORSDOF 1
ENDMDL
MODEL 6
REMARK VINA RESULT:      -5.1     12.319     12.983
REMARK  Name = min_compound931.pdb
REMARK  1 active torsions:
REMARK  status: ('A' for Active; 'I' for Inactive)
REMARK    1  A    between atoms: _9  and  _13
REMARK                            x       y       z     vdW  Elec       q    Type
REMARK                         _______ _______ _______ _____ _____    ______ ____
ROOT
ATOM      1  C   UNL     1     -17.630   4.872  -4.454  0.00  0.00    +0.183 A 
ATOM      2  N   UNL     1     -16.509   5.224  -3.869  0.00  0.00    -0.148 NA
ATOM      3  N   UNL     1     -15.590   4.193  -3.868  0.00  0.00    -0.126 NA
ATOM      4  C   UNL     1     -16.041   3.097  -4.441  0.00  0.00    +0.191 A 
ATOM      5  N   UNL     1     -15.376   1.888  -4.617  0.00  0.00    -0.231 N 
ATOM      6  C   UNL     1     -14.069   1.778  -4.132  0.00  0.00    +0.232 C 
ATOM      7  C   UNL     1     -13.441   0.441  -4.466  0.00  0.00    +0.167 C 
ATOM      8  S   UNL     1     -14.516  -0.378  -5.649  0.00  0.00    -0.123 S 
ATOM      9  O   UNL     1     -13.434   2.613  -3.496  0.00  0.00    -0.274 OA
ATOM     10  C   UNL     1     -15.906   0.705  -5.258  0.00  0.00    +0.178 C 
ATOM     11  S   UNL     1     -17.644   3.269  -5.050  0.00  0.00    -0.038 S 
ENDROOT
BRANCH  10  12
ATOM     12  C   UNL     1     -16.925  -0.018  -4.406  0.00  0.00    +0.021 A 
ATOM     13  S   UNL     1     -18.305  -0.797  -5.080  0.00  0.00    -0.099 S 
ATOM     14  C   UNL     1     -18.856  -1.309  -3.547  0.00  0.00    +0.045 A 
ATOM     15  C   UNL     1     -18.019  -0.900  -2.534  0.00  0.00    +0.008 A 
ATOM     16  C   UNL     1     -16.910  -0.155  -3.027  0.00  0.00    +0.014 A 
ENDBRANCH  10  12
TORSDOF 1
ENDMDL
MODEL 7
REMARK VINA RESULT:      -5.0      2.949      4.421
REMARK  Name = min_compound931.pdb
REMARK  1 active torsions:
REMARK  status: ('A' for Active; 'I' for Inactive)
REMARK    1  A    between atoms: _9  and  _13
REMARK                            x       y       z     vdW  Elec       q    Type
REMARK                         _______ _______ _______ _____ _____    ______ ____
ROOT
ATOM      1  C   UNL     1     -14.567   2.657 -21.944  0.00  0.00    +0.183 A 
ATOM      2  N   UNL     1     -13.643   1.729 -21.860  0.00  0.00    -0.148 NA
ATOM      3  N   UNL     1     -13.129   1.638 -20.581  0.00  0.00    -0.126 NA
ATOM      4  C   UNL     1     -13.670   2.496 -19.743  0.00  0.00    +0.191 A 
ATOM      5  N   UNL     1     -13.392   2.662 -18.390  0.00  0.00    -0.231 N 
ATOM      6  C   UNL     1     -12.418   1.842 -17.812  0.00  0.00    +0.232 C 
ATOM      7  C   UNL     1     -12.279   2.075 -16.322  0.00  0.00    +0.167 C 
ATOM      8  S   UNL     1     -13.660   3.101 -15.807  0.00  0.00    -0.123 S 
ATOM      9  O   UNL     1     -11.709   1.012 -18.373  0.00  0.00    -0.274 OA
ATOM     10  C   UNL     1     -14.013   3.617 -17.500  0.00  0.00    +0.178 C 
ATOM     11  S   UNL     1     -14.882   3.477 -20.477  0.00  0.00    -0.038 S 
ENDROOT
BRANCH  10  12
ATOM     12  C   UNL     1     -13.541   5.034 -17.736  0.00  0.00    +0.021 A 
ATOM     13  S   UNL     1     -14.625   6.371 -17.796  0.00  0.00    -0.099 S 
ATOM     14  C   UNL     1     -13.358   7.481 -18.074  0.00  0.00    +0.045 A 
ATOM     15  C   UNL     1     -12.130   6.862 -18.126  0.00  0.00    +0.008 A 
ATOM     16  C   UNL     1     -12.235   5.455 -17.936  0.00  0.00    +0.014 A 
ENDBRANCH  10  12
TORSDOF 1
ENDMDL
MODEL 8
REMARK VINA RESULT:      -4.9     11.823     13.876
REMARK  Name = min_compound931.pdb
REMARK  1 active torsions:
REMARK  status: ('A' for Active; 'I' for Inactive)
REMARK    1  A    between atoms: _9  and  _13
REMARK                            x       y       z     vdW  Elec       q    Type
REMARK                         _______ _______ _______ _____ _____    ______ ____
ROOT
ATOM      1  C   UNL     1     -18.786  -2.460  -3.260  0.00  0.00    +0.183 A 
ATOM      2  N   UNL     1     -17.777  -3.057  -2.669  0.00  0.00    -0.148 NA
ATOM      3  N   UNL     1     -16.631  -2.289  -2.721  0.00  0.00    -0.126 NA
ATOM      4  C   UNL     1     -16.801  -1.145  -3.350  0.00  0.00    +0.191 A 
ATOM      5  N   UNL     1     -15.863  -0.142  -3.570  0.00  0.00    -0.231 N 
ATOM      6  C   UNL     1     -14.565  -0.336  -3.088  0.00  0.00    +0.232 C 
ATOM      7  C   UNL     1     -13.676   0.867  -3.326  0.00  0.00    +0.167 C 
ATOM      8  S   UNL     1     -14.732   2.220  -3.855  0.00  0.00    -0.123 S 
ATOM      9  O   UNL     1     -14.113  -1.333  -2.535  0.00  0.00    -0.274 OA
ATOM     10  C   UNL     1     -16.092   1.106  -4.264  0.00  0.00    +0.178 C 
ATOM     11  S   UNL     1     -18.415  -0.923  -3.912  0.00  0.00    -0.038 S 
ENDROOT
BRANCH  10  12
ATOM     12  C   UNL     1     -16.208   0.932  -5.762  0.00  0.00    +0.021 A 
ATOM     13  S   UNL     1     -17.079   2.037  -6.754  0.00  0.00    -0.099 S 
ATOM     14  C   UNL     1     -16.722   1.159  -8.174  0.00  0.00    +0.045 A 
ATOM     15  C   UNL     1     -15.960   0.044  -7.914  0.00  0.00    +0.008 A 
ATOM     16  C   UNL     1     -15.667  -0.089  -6.526  0.00  0.00    +0.014 A 
ENDBRANCH  10  12
TORSDOF 1
ENDMDL
MODEL 9
REMARK VINA RESULT:      -4.9      2.418      4.227
REMARK  Name = min_compound931.pdb
REMARK  1 active torsions:
REMARK  status: ('A' for Active; 'I' for Inactive)
REMARK    1  A    between atoms: _9  and  _13
REMARK                            x       y       z     vdW  Elec       q    Type
REMARK                         _______ _______ _______ _____ _____    ______ ____
ROOT
ATOM      1  C   UNL     1     -15.534   4.828 -14.195  0.00  0.00    +0.183 A 
ATOM      2  N   UNL     1     -15.471   5.978 -14.823  0.00  0.00    -0.148 NA
ATOM      3  N   UNL     1     -14.948   5.835 -16.093  0.00  0.00    -0.126 NA
ATOM      4  C   UNL     1     -14.627   4.593 -16.385  0.00  0.00    +0.191 A 
ATOM      5  N   UNL     1     -14.090   4.104 -17.571  0.00  0.00    -0.231 N 
ATOM      6  C   UNL     1     -13.837   5.012 -18.604  0.00  0.00    +0.232 C 
ATOM      7  C   UNL     1     -13.334   4.332 -19.860  0.00  0.00    +0.167 C 
ATOM      8  S   UNL     1     -13.564   2.564 -19.642  0.00  0.00    -0.123 S 
ATOM      9  O   UNL     1     -13.971   6.232 -18.578  0.00  0.00    -0.274 OA
ATOM     10  C   UNL     1     -13.755   2.726 -17.855  0.00  0.00    +0.178 C 
ATOM     11  S   UNL     1     -14.972   3.493 -15.104  0.00  0.00    -0.038 S 
ENDROOT
BRANCH  10  12
ATOM     12  C   UNL     1     -12.504   2.267 -17.140  0.00  0.00    +0.021 A 
ATOM     13  S   UNL     1     -12.232   0.619 -16.722  0.00  0.00    -0.099 S 
ATOM     14  C   UNL     1     -10.719   0.971 -16.013  0.00  0.00    +0.045 A 
ATOM     15  C   UNL     1     -10.416   2.311 -16.082  0.00  0.00    +0.008 A 
ATOM     16  C   UNL     1     -11.443   3.058 -16.727  0.00  0.00    +0.014 A 
ENDBRANCH  10  12
TORSDOF 1
ENDMDL
