MODEL 1
REMARK VINA RESULT:      -6.6      0.000      0.000
REMARK  Name = min_compound948.pdb
REMARK  4 active torsions:
REMARK  status: ('A' for Active; 'I' for Inactive)
REMARK    1  A    between atoms: _4  and  _15
REMARK    2  A    between atoms: _8  and  _9
REMARK    3  A    between atoms: _10  and  _18
REMARK    4  A    between atoms: _14  and  _19
REMARK                            x       y       z     vdW  Elec       q    Type
REMARK                         _______ _______ _______ _____ _____    ______ ____
ROOT
ATOM      1  C   UNL     1      -9.949   1.651 -17.259  0.00  0.00    +0.099 A 
ATOM      2  N   UNL     1     -11.230   2.019 -16.828  0.00  0.00    -0.240 N 
ATOM      3  C   UNL     1     -11.814   3.245 -16.621  0.00  0.00    +0.397 A 
ATOM      4  C   UNL     1     -13.100   3.025 -16.195  0.00  0.00    +0.240 A 
ATOM      5  N   UNL     1     -13.346   1.664 -16.170  0.00  0.00    -0.204 NA
ATOM      6  C   UNL     1     -12.225   1.082 -16.542  0.00  0.00    +0.145 A 
ATOM      7  C   UNL     1     -11.900  -0.295 -16.703  0.00  0.00    +0.047 A 
ATOM      8  C   UNL     1     -10.668  -0.648 -17.116  0.00  0.00    +0.005 A 
ATOM      9  C   UNL     1      -9.650   0.348 -17.405  0.00  0.00    +0.018 A 
ENDROOT
BRANCH   4  10
ATOM     10  N   UNL     1     -14.179   3.881 -15.816  0.00  0.00    -0.274 N 
ATOM     11  C   UNL     1     -15.064   4.660 -16.562  0.00  0.00    +0.119 A 
ATOM     12  C   UNL     1     -14.995   4.921 -18.022  0.00  0.00    +0.087 C 
ATOM     13  N   UNL     1     -15.954   5.258 -15.785  0.00  0.00    -0.167 NA
ATOM     14  C   UNL     1     -15.608   4.929 -14.500  0.00  0.00    +0.385 A 
ATOM     15  C   UNL     1     -14.506   4.113 -14.490  0.00  0.00    +0.201 A 
BRANCH  14  16
ATOM     16  N   UNL     1     -16.343   5.434 -13.363  0.00  0.00    +0.102 N 
ATOM     17  O   UNL     1     -16.034   6.548 -12.921  0.00  0.00    +0.043 OA
ATOM     18  O   UNL     1     -17.236   4.701 -12.909  0.00  0.00    -0.575 OA
ENDBRANCH  14  16
ENDBRANCH   4  10
BRANCH   3  19
ATOM     19  N   UNL     1     -11.136   4.414 -16.990  0.00  0.00    +0.103 N 
ATOM     20  O   UNL     1     -11.458   4.912 -18.072  0.00  0.00    +0.043 OA
ATOM     21  O   UNL     1     -10.282   4.833 -16.205  0.00  0.00    -0.575 OA
ENDBRANCH   3  19
TORSDOF 3
ENDMDL
MODEL 2
REMARK VINA RESULT:      -6.6      2.736      6.427
REMARK  Name = min_compound948.pdb
REMARK  4 active torsions:
REMARK  status: ('A' for Active; 'I' for Inactive)
REMARK    1  A    between atoms: _4  and  _15
REMARK    2  A    between atoms: _8  and  _9
REMARK    3  A    between atoms: _10  and  _18
REMARK    4  A    between atoms: _14  and  _19
REMARK                            x       y       z     vdW  Elec       q    Type
REMARK                         _______ _______ _______ _____ _____    ______ ____
ROOT
ATOM      1  C   UNL     1     -15.927   6.550 -16.094  0.00  0.00    +0.099 A 
ATOM      2  N   UNL     1     -14.786   5.769 -16.311  0.00  0.00    -0.240 N 
ATOM      3  C   UNL     1     -14.437   4.511 -15.883  0.00  0.00    +0.397 A 
ATOM      4  C   UNL     1     -13.195   4.229 -16.395  0.00  0.00    +0.240 A 
ATOM      5  N   UNL     1     -12.772   5.288 -17.178  0.00  0.00    -0.204 NA
ATOM      6  C   UNL     1     -13.724   6.195 -17.112  0.00  0.00    +0.145 A 
ATOM      7  C   UNL     1     -13.832   7.477 -17.722  0.00  0.00    +0.047 A 
ATOM      8  C   UNL     1     -14.929   8.228 -17.512  0.00  0.00    +0.005 A 
ATOM      9  C   UNL     1     -16.019   7.762 -16.671  0.00  0.00    +0.018 A 
ENDROOT
BRANCH   4  10
ATOM     10  N   UNL     1     -12.314   3.108 -16.299  0.00  0.00    -0.274 N 
ATOM     11  C   UNL     1     -10.964   3.002 -15.966  0.00  0.00    +0.119 A 
ATOM     12  C   UNL     1     -10.015   4.126 -15.762  0.00  0.00    +0.087 C 
ATOM     13  N   UNL     1     -10.567   1.740 -15.951  0.00  0.00    -0.167 NA
ATOM     14  C   UNL     1     -11.652   1.003 -16.352  0.00  0.00    +0.385 A 
ATOM     15  C   UNL     1     -12.724   1.820 -16.602  0.00  0.00    +0.201 A 
BRANCH  14  16
ATOM     16  N   UNL     1     -11.585  -0.435 -16.489  0.00  0.00    +0.102 N 
ATOM     17  O   UNL     1     -12.637  -1.077 -16.377  0.00  0.00    +0.043 OA
ATOM     18  O   UNL     1     -10.464  -0.920 -16.709  0.00  0.00    -0.575 OA
ENDBRANCH  14  16
ENDBRANCH   4  10
BRANCH   3  19
ATOM     19  N   UNL     1     -15.369   3.722 -15.197  0.00  0.00    +0.103 N 
ATOM     20  O   UNL     1     -16.109   3.022 -15.893  0.00  0.00    +0.043 OA
ATOM     21  O   UNL     1     -15.366   3.803 -13.965  0.00  0.00    -0.575 OA
ENDBRANCH   3  19
TORSDOF 3
ENDMDL
MODEL 3
REMARK VINA RESULT:      -6.5      2.606      6.121
REMARK  Name = min_compound948.pdb
REMARK  4 active torsions:
REMARK  status: ('A' for Active; 'I' for Inactive)
REMARK    1  A    between atoms: _4  and  _15
REMARK    2  A    between atoms: _8  and  _9
REMARK    3  A    between atoms: _10  and  _18
REMARK    4  A    between atoms: _14  and  _19
REMARK                            x       y       z     vdW  Elec       q    Type
REMARK                         _______ _______ _______ _____ _____    ______ ____
ROOT
ATOM      1  C   UNL     1     -15.568   6.846 -16.517  0.00  0.00    +0.099 A 
ATOM      2  N   UNL     1     -14.829   5.708 -16.171  0.00  0.00    -0.240 N 
ATOM      3  C   UNL     1     -13.755   5.091 -16.766  0.00  0.00    +0.397 A 
ATOM      4  C   UNL     1     -13.424   4.003 -15.998  0.00  0.00    +0.240 A 
ATOM      5  N   UNL     1     -14.260   3.950 -14.896  0.00  0.00    -0.204 NA
ATOM      6  C   UNL     1     -15.090   4.964 -15.018  0.00  0.00    +0.145 A 
ATOM      7  C   UNL     1     -16.153   5.403 -14.178  0.00  0.00    +0.047 A 
ATOM      8  C   UNL     1     -16.863   6.496 -14.512  0.00  0.00    +0.005 A 
ATOM      9  C   UNL     1     -16.572   7.250 -15.720  0.00  0.00    +0.018 A 
ENDROOT
BRANCH   4  10
ATOM     10  N   UNL     1     -12.427   2.985 -16.098  0.00  0.00    -0.274 N 
ATOM     11  C   UNL     1     -11.041   3.012 -15.943  0.00  0.00    +0.119 A 
ATOM     12  C   UNL     1     -10.195   4.221 -15.772  0.00  0.00    +0.087 C 
ATOM     13  N   UNL     1     -10.516   1.804 -16.075  0.00  0.00    -0.167 NA
ATOM     14  C   UNL     1     -11.561   0.976 -16.394  0.00  0.00    +0.385 A 
ATOM     15  C   UNL     1     -12.737   1.680 -16.446  0.00  0.00    +0.201 A 
BRANCH  14  16
ATOM     16  N   UNL     1     -11.364  -0.433 -16.649  0.00  0.00    +0.102 N 
ATOM     17  O   UNL     1     -10.296  -0.784 -17.168  0.00  0.00    +0.043 OA
ATOM     18  O   UNL     1     -12.292  -1.191 -16.327  0.00  0.00    -0.575 OA
ENDBRANCH  14  16
ENDBRANCH   4  10
BRANCH   3  19
ATOM     19  N   UNL     1     -13.123   5.692 -17.862  0.00  0.00    +0.103 N 
ATOM     20  O   UNL     1     -13.493   5.317 -18.977  0.00  0.00    +0.043 OA
ATOM     21  O   UNL     1     -12.257   6.534 -17.610  0.00  0.00    -0.575 OA
ENDBRANCH   3  19
TORSDOF 3
ENDMDL
MODEL 4
REMARK VINA RESULT:      -6.4      2.973      4.059
REMARK  Name = min_compound948.pdb
REMARK  4 active torsions:
REMARK  status: ('A' for Active; 'I' for Inactive)
REMARK    1  A    between atoms: _4  and  _15
REMARK    2  A    between atoms: _8  and  _9
REMARK    3  A    between atoms: _10  and  _18
REMARK    4  A    between atoms: _14  and  _19
REMARK                            x       y       z     vdW  Elec       q    Type
REMARK                         _______ _______ _______ _____ _____    ______ ____
ROOT
ATOM      1  C   UNL     1     -10.461   0.920 -15.446  0.00  0.00    +0.099 A 
ATOM      2  N   UNL     1     -11.187   1.398 -16.544  0.00  0.00    -0.240 N 
ATOM      3  C   UNL     1     -11.916   2.547 -16.736  0.00  0.00    +0.397 A 
ATOM      4  C   UNL     1     -12.422   2.509 -18.011  0.00  0.00    +0.240 A 
ATOM      5  N   UNL     1     -11.984   1.358 -18.642  0.00  0.00    -0.204 NA
ATOM      6  C   UNL     1     -11.258   0.709 -17.756  0.00  0.00    +0.145 A 
ATOM      7  C   UNL     1     -10.556  -0.526 -17.854  0.00  0.00    +0.047 A 
ATOM      8  C   UNL     1      -9.859  -0.986 -16.798  0.00  0.00    +0.005 A 
ATOM      9  C   UNL     1      -9.804  -0.249 -15.546  0.00  0.00    +0.018 A 
ENDROOT
BRANCH   4  10
ATOM     10  N   UNL     1     -13.248   3.388 -18.777  0.00  0.00    -0.274 N 
ATOM     11  C   UNL     1     -13.094   4.719 -19.165  0.00  0.00    +0.119 A 
ATOM     12  C   UNL     1     -12.028   5.650 -18.717  0.00  0.00    +0.087 C 
ATOM     13  N   UNL     1     -14.100   5.119 -19.927  0.00  0.00    -0.167 NA
ATOM     14  C   UNL     1     -14.969   4.061 -19.984  0.00  0.00    +0.385 A 
ATOM     15  C   UNL     1     -14.486   3.000 -19.262  0.00  0.00    +0.201 A 
BRANCH  14  16
ATOM     16  N   UNL     1     -16.217   4.141 -20.710  0.00  0.00    +0.102 N 
ATOM     17  O   UNL     1     -16.261   3.641 -21.841  0.00  0.00    +0.043 OA
ATOM     18  O   UNL     1     -17.157   4.714 -20.137  0.00  0.00    -0.575 OA
ENDBRANCH  14  16
ENDBRANCH   4  10
BRANCH   3  19
ATOM     19  N   UNL     1     -11.902   3.555 -15.763  0.00  0.00    +0.103 N 
ATOM     20  O   UNL     1     -12.945   3.708 -15.122  0.00  0.00    +0.043 OA
ATOM     21  O   UNL     1     -10.853   4.194 -15.640  0.00  0.00    -0.575 OA
ENDBRANCH   3  19
TORSDOF 3
ENDMDL
MODEL 5
REMARK VINA RESULT:      -6.3      1.694      2.302
REMARK  Name = min_compound948.pdb
REMARK  4 active torsions:
REMARK  status: ('A' for Active; 'I' for Inactive)
REMARK    1  A    between atoms: _4  and  _15
REMARK    2  A    between atoms: _8  and  _9
REMARK    3  A    between atoms: _10  and  _18
REMARK    4  A    between atoms: _14  and  _19
REMARK                            x       y       z     vdW  Elec       q    Type
REMARK                         _______ _______ _______ _____ _____    ______ ____
ROOT
ATOM      1  C   UNL     1     -10.124   1.743 -17.042  0.00  0.00    +0.099 A 
ATOM      2  N   UNL     1     -11.427   2.187 -16.783  0.00  0.00    -0.240 N 
ATOM      3  C   UNL     1     -11.973   3.445 -16.709  0.00  0.00    +0.397 A 
ATOM      4  C   UNL     1     -13.308   3.302 -16.426  0.00  0.00    +0.240 A 
ATOM      5  N   UNL     1     -13.619   1.955 -16.360  0.00  0.00    -0.204 NA
ATOM      6  C   UNL     1     -12.491   1.309 -16.568  0.00  0.00    +0.145 A 
ATOM      7  C   UNL     1     -12.215  -0.087 -16.620  0.00  0.00    +0.047 A 
ATOM      8  C   UNL     1     -10.962  -0.513 -16.867  0.00  0.00    +0.005 A 
ATOM      9  C   UNL     1      -9.871   0.423 -17.085  0.00  0.00    +0.018 A 
ENDROOT
BRANCH   4  10
ATOM     10  N   UNL     1     -14.382   4.221 -16.220  0.00  0.00    -0.274 N 
ATOM     11  C   UNL     1     -15.009   4.686 -15.064  0.00  0.00    +0.119 A 
ATOM     12  C   UNL     1     -14.793   4.190 -13.682  0.00  0.00    +0.087 C 
ATOM     13  N   UNL     1     -15.937   5.587 -15.348  0.00  0.00    -0.167 NA
ATOM     14  C   UNL     1     -15.977   5.664 -16.716  0.00  0.00    +0.385 A 
ATOM     15  C   UNL     1     -15.057   4.814 -17.274  0.00  0.00    +0.201 A 
BRANCH  14  16
ATOM     16  N   UNL     1     -16.907   6.533 -17.401  0.00  0.00    +0.102 N 
ATOM     17  O   UNL     1     -17.940   6.862 -16.803  0.00  0.00    +0.043 OA
ATOM     18  O   UNL     1     -16.597   6.883 -18.551  0.00  0.00    -0.575 OA
ENDBRANCH  14  16
ENDBRANCH   4  10
BRANCH   3  19
ATOM     19  N   UNL     1     -11.203   4.563 -17.055  0.00  0.00    +0.103 N 
ATOM     20  O   UNL     1     -11.459   5.085 -18.143  0.00  0.00    +0.043 OA
ATOM     21  O   UNL     1     -10.343   4.918 -16.245  0.00  0.00    -0.575 OA
ENDBRANCH   3  19
TORSDOF 3
ENDMDL
MODEL 6
REMARK VINA RESULT:      -6.3     10.197     12.825
REMARK  Name = min_compound948.pdb
REMARK  4 active torsions:
REMARK  status: ('A' for Active; 'I' for Inactive)
REMARK    1  A    between atoms: _4  and  _15
REMARK    2  A    between atoms: _8  and  _9
REMARK    3  A    between atoms: _10  and  _18
REMARK    4  A    between atoms: _14  and  _19
REMARK                            x       y       z     vdW  Elec       q    Type
REMARK                         _______ _______ _______ _____ _____    ______ ____
ROOT
ATOM      1  C   UNL     1     -17.859   4.114  -6.949  0.00  0.00    +0.099 A 
ATOM      2  N   UNL     1     -17.103   3.044  -6.455  0.00  0.00    -0.240 N 
ATOM      3  C   UNL     1     -16.565   2.792  -5.216  0.00  0.00    +0.397 A 
ATOM      4  C   UNL     1     -15.915   1.586  -5.285  0.00  0.00    +0.240 A 
ATOM      5  N   UNL     1     -16.071   1.053  -6.552  0.00  0.00    -0.204 NA
ATOM      6  C   UNL     1     -16.773   1.933  -7.234  0.00  0.00    +0.145 A 
ATOM      7  C   UNL     1     -17.237   1.912  -8.580  0.00  0.00    +0.047 A 
ATOM      8  C   UNL     1     -17.963   2.941  -9.055  0.00  0.00    +0.005 A 
ATOM      9  C   UNL     1     -18.290   4.087  -8.223  0.00  0.00    +0.018 A 
ENDROOT
BRANCH   4  10
ATOM     10  N   UNL     1     -15.168   0.807  -4.348  0.00  0.00    -0.274 N 
ATOM     11  C   UNL     1     -14.075   1.112  -3.536  0.00  0.00    +0.119 A 
ATOM     12  C   UNL     1     -13.278   2.364  -3.562  0.00  0.00    +0.087 C 
ATOM     13  N   UNL     1     -13.738   0.083  -2.773  0.00  0.00    -0.167 NA
ATOM     14  C   UNL     1     -14.573  -0.941  -3.139  0.00  0.00    +0.385 A 
ATOM     15  C   UNL     1     -15.435  -0.533  -4.123  0.00  0.00    +0.201 A 
BRANCH  14  16
ATOM     16  N   UNL     1     -14.476  -2.251  -2.536  0.00  0.00    +0.102 N 
ATOM     17  O   UNL     1     -15.191  -3.153  -2.991  0.00  0.00    +0.043 OA
ATOM     18  O   UNL     1     -13.677  -2.372  -1.594  0.00  0.00    -0.575 OA
ENDBRANCH  14  16
ENDBRANCH   4  10
BRANCH   3  19
ATOM     19  N   UNL     1     -16.866   3.635  -4.138  0.00  0.00    +0.103 N 
ATOM     20  O   UNL     1     -17.905   3.382  -3.523  0.00  0.00    +0.043 OA
ATOM     21  O   UNL     1     -16.069   4.548  -3.908  0.00  0.00    -0.575 OA
ENDBRANCH   3  19
TORSDOF 3
ENDMDL
MODEL 7
REMARK VINA RESULT:      -6.2      2.811      3.476
REMARK  Name = min_compound948.pdb
REMARK  4 active torsions:
REMARK  status: ('A' for Active; 'I' for Inactive)
REMARK    1  A    between atoms: _4  and  _15
REMARK    2  A    between atoms: _8  and  _9
REMARK    3  A    between atoms: _10  and  _18
REMARK    4  A    between atoms: _14  and  _19
REMARK                            x       y       z     vdW  Elec       q    Type
REMARK                         _______ _______ _______ _____ _____    ______ ____
ROOT
ATOM      1  C   UNL     1     -11.958   0.793 -17.844  0.00  0.00    +0.099 A 
ATOM      2  N   UNL     1     -12.078   2.156 -17.545  0.00  0.00    -0.240 N 
ATOM      3  C   UNL     1     -12.823   3.161 -18.113  0.00  0.00    +0.397 A 
ATOM      4  C   UNL     1     -12.558   4.315 -17.420  0.00  0.00    +0.240 A 
ATOM      5  N   UNL     1     -11.678   4.038 -16.390  0.00  0.00    -0.204 NA
ATOM      6  C   UNL     1     -11.398   2.755 -16.482  0.00  0.00    +0.145 A 
ATOM      7  C   UNL     1     -10.558   1.926 -15.686  0.00  0.00    +0.047 A 
ATOM      8  C   UNL     1     -10.443   0.616 -15.975  0.00  0.00    +0.005 A 
ATOM      9  C   UNL     1     -11.160   0.018 -17.089  0.00  0.00    +0.018 A 
ENDROOT
BRANCH   4  10
ATOM     10  N   UNL     1     -13.008   5.667 -17.536  0.00  0.00    -0.274 N 
ATOM     11  C   UNL     1     -12.653   6.702 -18.400  0.00  0.00    +0.119 A 
ATOM     12  C   UNL     1     -11.537   6.690 -19.380  0.00  0.00    +0.087 C 
ATOM     13  N   UNL     1     -13.378   7.787 -18.178  0.00  0.00    -0.167 NA
ATOM     14  C   UNL     1     -14.173   7.490 -17.102  0.00  0.00    +0.385 A 
ATOM     15  C   UNL     1     -13.943   6.210 -16.670  0.00  0.00    +0.201 A 
BRANCH  14  16
ATOM     16  N   UNL     1     -15.089   8.460 -16.544  0.00  0.00    +0.102 N 
ATOM     17  O   UNL     1     -15.209   8.501 -15.312  0.00  0.00    +0.043 OA
ATOM     18  O   UNL     1     -15.693   9.183 -17.352  0.00  0.00    -0.575 OA
ENDBRANCH  14  16
ENDBRANCH   4  10
BRANCH   3  19
ATOM     19  N   UNL     1     -13.765   2.858 -19.104  0.00  0.00    +0.103 N 
ATOM     20  O   UNL     1     -14.947   3.058 -18.813  0.00  0.00    +0.043 OA
ATOM     21  O   UNL     1     -13.327   2.418 -20.171  0.00  0.00    -0.575 OA
ENDBRANCH   3  19
TORSDOF 3
ENDMDL
MODEL 8
REMARK VINA RESULT:      -6.1     13.464     15.662
REMARK  Name = min_compound948.pdb
REMARK  4 active torsions:
REMARK  status: ('A' for Active; 'I' for Inactive)
REMARK    1  A    between atoms: _4  and  _15
REMARK    2  A    between atoms: _8  and  _9
REMARK    3  A    between atoms: _10  and  _18
REMARK    4  A    between atoms: _14  and  _19
REMARK                            x       y       z     vdW  Elec       q    Type
REMARK                         _______ _______ _______ _____ _____    ______ ____
ROOT
ATOM      1  C   UNL     1     -16.060   1.653  -3.853  0.00  0.00    +0.099 A 
ATOM      2  N   UNL     1     -15.626   0.412  -3.371  0.00  0.00    -0.240 N 
ATOM      3  C   UNL     1     -16.293  -0.764  -3.123  0.00  0.00    +0.397 A 
ATOM      4  C   UNL     1     -15.375  -1.670  -2.654  0.00  0.00    +0.240 A 
ATOM      5  N   UNL     1     -14.121  -1.085  -2.641  0.00  0.00    -0.204 NA
ATOM      6  C   UNL     1     -14.289   0.150  -3.063  0.00  0.00    +0.145 A 
ATOM      7  C   UNL     1     -13.350   1.203  -3.257  0.00  0.00    +0.047 A 
ATOM      8  C   UNL     1     -13.768   2.396  -3.720  0.00  0.00    +0.005 A 
ATOM      9  C   UNL     1     -15.166   2.642  -4.030  0.00  0.00    +0.018 A 
ENDROOT
BRANCH   4  10
ATOM     10  N   UNL     1     -15.456  -3.030  -2.223  0.00  0.00    -0.274 N 
ATOM     11  C   UNL     1     -16.333  -3.691  -1.364  0.00  0.00    +0.119 A 
ATOM     12  C   UNL     1     -17.378  -3.062  -0.516  0.00  0.00    +0.087 C 
ATOM     13  N   UNL     1     -16.062  -4.984  -1.296  0.00  0.00    -0.167 NA
ATOM     14  C   UNL     1     -14.941  -5.171  -2.065  0.00  0.00    +0.385 A 
ATOM     15  C   UNL     1     -14.532  -3.984  -2.617  0.00  0.00    +0.201 A 
BRANCH  14  16
ATOM     16  N   UNL     1     -14.323  -6.470  -2.204  0.00  0.00    +0.102 N 
ATOM     17  O   UNL     1     -14.911  -7.321  -2.885  0.00  0.00    +0.043 OA
ATOM     18  O   UNL     1     -13.240  -6.635  -1.621  0.00  0.00    -0.575 OA
ENDBRANCH  14  16
ENDBRANCH   4  10
BRANCH   3  19
ATOM     19  N   UNL     1     -17.635  -0.899  -3.499  0.00  0.00    +0.103 N 
ATOM     20  O   UNL     1     -18.473  -0.553  -2.662  0.00  0.00    +0.043 OA
ATOM     21  O   UNL     1     -17.854  -1.351  -4.626  0.00  0.00    -0.575 OA
ENDBRANCH   3  19
TORSDOF 3
ENDMDL
MODEL 9
REMARK VINA RESULT:      -6.1     10.247     12.827
REMARK  Name = min_compound948.pdb
REMARK  4 active torsions:
REMARK  status: ('A' for Active; 'I' for Inactive)
REMARK    1  A    between atoms: _4  and  _15
REMARK    2  A    between atoms: _8  and  _9
REMARK    3  A    between atoms: _10  and  _18
REMARK    4  A    between atoms: _14  and  _19
REMARK                            x       y       z     vdW  Elec       q    Type
REMARK                         _______ _______ _______ _____ _____    ______ ____
ROOT
ATOM      1  C   UNL     1     -18.507   1.645  -7.958  0.00  0.00    +0.099 A 
ATOM      2  N   UNL     1     -17.417   1.299  -7.151  0.00  0.00    -0.240 N 
ATOM      3  C   UNL     1     -17.328   0.592  -5.976  0.00  0.00    +0.397 A 
ATOM      4  C   UNL     1     -16.005   0.551  -5.616  0.00  0.00    +0.240 A 
ATOM      5  N   UNL     1     -15.249   1.197  -6.577  0.00  0.00    -0.204 NA
ATOM      6  C   UNL     1     -16.102   1.640  -7.477  0.00  0.00    +0.145 A 
ATOM      7  C   UNL     1     -15.889   2.365  -8.683  0.00  0.00    +0.047 A 
ATOM      8  C   UNL     1     -16.938   2.698  -9.459  0.00  0.00    +0.005 A 
ATOM      9  C   UNL     1     -18.297   2.333  -9.094  0.00  0.00    +0.018 A 
ENDROOT
BRANCH   4  10
ATOM     10  N   UNL     1     -15.295  -0.016  -4.513  0.00  0.00    -0.274 N 
ATOM     11  C   UNL     1     -14.440   0.542  -3.562  0.00  0.00    +0.119 A 
ATOM     12  C   UNL     1     -13.909   1.928  -3.558  0.00  0.00    +0.087 C 
ATOM     13  N   UNL     1     -14.047  -0.361  -2.677  0.00  0.00    -0.167 NA
ATOM     14  C   UNL     1     -14.590  -1.550  -3.091  0.00  0.00    +0.385 A 
ATOM     15  C   UNL     1     -15.332  -1.371  -4.231  0.00  0.00    +0.201 A 
BRANCH  14  16
ATOM     16  N   UNL     1     -14.346  -2.785  -2.380  0.00  0.00    +0.102 N 
ATOM     17  O   UNL     1     -15.026  -3.774  -2.687  0.00  0.00    +0.043 OA
ATOM     18  O   UNL     1     -13.467  -2.757  -1.504  0.00  0.00    -0.575 OA
ENDBRANCH  14  16
ENDBRANCH   4  10
BRANCH   3  19
ATOM     19  N   UNL     1     -18.460  -0.054  -5.462  0.00  0.00    +0.103 N 
ATOM     20  O   UNL     1     -19.166   0.610  -4.698  0.00  0.00    +0.043 OA
ATOM     21  O   UNL     1     -18.644  -1.221  -5.818  0.00  0.00    -0.575 OA
ENDBRANCH   3  19
TORSDOF 3
ENDMDL
