MODEL 1
REMARK VINA RESULT:      -6.2      0.000      0.000
REMARK  Name = min_compound91.pdb
REMARK  2 active torsions:
REMARK  status: ('A' for Active; 'I' for Inactive)
REMARK    1  A    between atoms: _6  and  _8
REMARK    2  A    between atoms: _7  and  _14
REMARK                            x       y       z     vdW  Elec       q    Type
REMARK                         _______ _______ _______ _____ _____    ______ ____
ROOT
ATOM      1  H   UNL     1     -14.755   4.787 -17.534  0.00  0.00    +0.211 HD
ATOM      2  N   UNL     1     -14.423   3.834 -17.580  0.00  0.00    -0.182 N 
ATOM      3  C   UNL     1     -13.523   3.372 -16.656  0.00  0.00    +0.285 A 
ATOM      4  C   UNL     1     -12.771   2.271 -17.268  0.00  0.00    +0.082 A 
ATOM      5  C   UNL     1     -13.165   2.322 -18.548  0.00  0.00    +0.220 A 
ATOM      6  O   UNL     1     -13.373   3.832 -15.539  0.00  0.00    -0.265 OA
ATOM      7  O   UNL     1     -14.132   3.274 -18.841  0.00  0.00    -0.362 OA
ENDROOT
BRANCH   4   8
ATOM      8  C   UNL     1     -11.734   1.384 -16.616  0.00  0.00    +0.029 C 
ATOM      9  C   UNL     1     -10.309   1.824 -16.779  0.00  0.00    +0.008 C 
ATOM     10  C   UNL     1      -9.736   0.476 -17.458  0.00  0.00    +0.001 C 
ATOM     11  C   UNL     1      -9.506  -0.598 -16.293  0.00  0.00    +0.000 C 
ATOM     12  C   UNL     1     -10.930  -1.038 -16.130  0.00  0.00    +0.001 C 
ATOM     13  C   UNL     1     -12.049  -0.133 -16.678  0.00  0.00    +0.008 C 
ENDBRANCH   4   8
BRANCH   5  14
ATOM     14  N   UNL     1     -12.753   1.542 -19.594  0.00  0.00    -0.327 N 
ATOM     15  H   UNL     1     -13.506   1.069 -20.083  0.00  0.00    +0.145 HD
ATOM     16  H   UNL     1     -12.135   2.053 -20.220  0.00  0.00    +0.145 HD
ENDBRANCH   5  14
TORSDOF 2
ENDMDL
MODEL 2
REMARK VINA RESULT:      -6.0      1.093      2.116
REMARK  Name = min_compound91.pdb
REMARK  2 active torsions:
REMARK  status: ('A' for Active; 'I' for Inactive)
REMARK    1  A    between atoms: _6  and  _8
REMARK    2  A    between atoms: _7  and  _14
REMARK                            x       y       z     vdW  Elec       q    Type
REMARK                         _______ _______ _______ _____ _____    ______ ____
ROOT
ATOM      1  H   UNL     1     -14.746   3.573 -19.328  0.00  0.00    +0.211 HD
ATOM      2  N   UNL     1     -14.064   3.554 -18.583  0.00  0.00    -0.182 N 
ATOM      3  C   UNL     1     -13.186   2.506 -18.480  0.00  0.00    +0.285 A 
ATOM      4  C   UNL     1     -12.778   2.395 -17.075  0.00  0.00    +0.082 A 
ATOM      5  C   UNL     1     -13.599   3.257 -16.461  0.00  0.00    +0.220 A 
ATOM      6  O   UNL     1     -12.845   1.790 -19.403  0.00  0.00    -0.265 OA
ATOM      7  O   UNL     1     -14.450   3.972 -17.293  0.00  0.00    -0.362 OA
ENDROOT
BRANCH   4   8
ATOM      8  C   UNL     1     -11.754   1.453 -16.482  0.00  0.00    +0.029 C 
ATOM      9  C   UNL     1     -10.328   1.910 -16.562  0.00  0.00    +0.008 C 
ATOM     10  C   UNL     1      -9.729   0.634 -17.351  0.00  0.00    +0.001 C 
ATOM     11  C   UNL     1      -9.525  -0.546 -16.288  0.00  0.00    +0.000 C 
ATOM     12  C   UNL     1     -10.952  -1.003 -16.208  0.00  0.00    +0.001 C 
ATOM     13  C   UNL     1     -12.060  -0.053 -16.697  0.00  0.00    +0.008 C 
ENDBRANCH   4   8
BRANCH   5  14
ATOM     14  N   UNL     1     -13.688   3.539 -15.125  0.00  0.00    -0.327 N 
ATOM     15  H   UNL     1     -13.371   4.470 -14.873  0.00  0.00    +0.145 HD
ATOM     16  H   UNL     1     -14.612   3.324 -14.760  0.00  0.00    +0.145 HD
ENDBRANCH   5  14
TORSDOF 2
ENDMDL
MODEL 3
REMARK VINA RESULT:      -5.7      1.889      2.252
REMARK  Name = min_compound91.pdb
REMARK  2 active torsions:
REMARK  status: ('A' for Active; 'I' for Inactive)
REMARK    1  A    between atoms: _6  and  _8
REMARK    2  A    between atoms: _7  and  _14
REMARK                            x       y       z     vdW  Elec       q    Type
REMARK                         _______ _______ _______ _____ _____    ______ ____
ROOT
ATOM      1  H   UNL     1     -15.261   4.705 -15.910  0.00  0.00    +0.211 HD
ATOM      2  N   UNL     1     -14.485   4.406 -16.482  0.00  0.00    -0.182 N 
ATOM      3  C   UNL     1     -13.962   3.148 -16.332  0.00  0.00    +0.285 A 
ATOM      4  C   UNL     1     -12.562   3.185 -16.770  0.00  0.00    +0.082 A 
ATOM      5  C   UNL     1     -12.344   4.495 -16.948  0.00  0.00    +0.220 A 
ATOM      6  O   UNL     1     -14.567   2.191 -15.884  0.00  0.00    -0.265 OA
ATOM      7  O   UNL     1     -13.444   5.319 -16.749  0.00  0.00    -0.362 OA
ENDROOT
BRANCH   4   8
ATOM      8  C   UNL     1     -11.597   2.026 -16.879  0.00  0.00    +0.029 C 
ATOM      9  C   UNL     1     -12.020   0.914 -17.792  0.00  0.00    +0.008 C 
ATOM     10  C   UNL     1     -11.952  -0.293 -16.720  0.00  0.00    +0.001 C 
ATOM     11  C   UNL     1     -10.416  -0.712 -16.554  0.00  0.00    +0.000 C 
ATOM     12  C   UNL     1      -9.993   0.400 -15.640  0.00  0.00    +0.001 C 
ATOM     13  C   UNL     1     -10.874   1.660 -15.556  0.00  0.00    +0.008 C 
ENDBRANCH   4   8
BRANCH   5  14
ATOM     14  N   UNL     1     -11.186   5.118 -17.324  0.00  0.00    -0.327 N 
ATOM     15  H   UNL     1     -11.058   5.192 -18.328  0.00  0.00    +0.145 HD
ATOM     16  H   UNL     1     -11.069   6.008 -16.845  0.00  0.00    +0.145 HD
ENDBRANCH   5  14
TORSDOF 2
ENDMDL
MODEL 4
REMARK VINA RESULT:      -5.7      1.750      2.277
REMARK  Name = min_compound91.pdb
REMARK  2 active torsions:
REMARK  status: ('A' for Active; 'I' for Inactive)
REMARK    1  A    between atoms: _6  and  _8
REMARK    2  A    between atoms: _7  and  _14
REMARK                            x       y       z     vdW  Elec       q    Type
REMARK                         _______ _______ _______ _____ _____    ______ ____
ROOT
ATOM      1  H   UNL     1     -13.802   5.990 -17.655  0.00  0.00    +0.211 HD
ATOM      2  N   UNL     1     -13.527   5.197 -17.092  0.00  0.00    -0.182 N 
ATOM      3  C   UNL     1     -12.407   4.478 -17.418  0.00  0.00    +0.285 A 
ATOM      4  C   UNL     1     -12.574   3.117 -16.894  0.00  0.00    +0.082 A 
ATOM      5  C   UNL     1     -13.851   3.116 -16.485  0.00  0.00    +0.220 A 
ATOM      6  O   UNL     1     -11.464   4.908 -18.057  0.00  0.00    -0.265 OA
ATOM      7  O   UNL     1     -14.523   4.323 -16.612  0.00  0.00    -0.362 OA
ENDROOT
BRANCH   4   8
ATOM      8  C   UNL     1     -11.571   1.987 -16.920  0.00  0.00    +0.029 C 
ATOM      9  C   UNL     1     -11.916   0.834 -17.817  0.00  0.00    +0.008 C 
ATOM     10  C   UNL     1     -11.863  -0.336 -16.705  0.00  0.00    +0.001 C 
ATOM     11  C   UNL     1     -10.326  -0.702 -16.453  0.00  0.00    +0.000 C 
ATOM     12  C   UNL     1      -9.981   0.450 -15.557  0.00  0.00    +0.001 C 
ATOM     13  C   UNL     1     -10.902   1.684 -15.554  0.00  0.00    +0.008 C 
ENDBRANCH   4   8
BRANCH   5  14
ATOM     14  N   UNL     1     -14.564   2.084 -15.939  0.00  0.00    -0.327 N 
ATOM     15  H   UNL     1     -15.173   1.604 -16.594  0.00  0.00    +0.145 HD
ATOM     16  H   UNL     1     -13.962   1.447 -15.422  0.00  0.00    +0.145 HD
ENDBRANCH   5  14
TORSDOF 2
ENDMDL
MODEL 5
REMARK VINA RESULT:      -5.6     11.343     12.138
REMARK  Name = min_compound91.pdb
REMARK  2 active torsions:
REMARK  status: ('A' for Active; 'I' for Inactive)
REMARK    1  A    between atoms: _6  and  _8
REMARK    2  A    between atoms: _7  and  _14
REMARK                            x       y       z     vdW  Elec       q    Type
REMARK                         _______ _______ _______ _____ _____    ______ ____
ROOT
ATOM      1  H   UNL     1     -17.677   0.969  -9.347  0.00  0.00    +0.211 HD
ATOM      2  N   UNL     1     -17.467   0.963  -8.359  0.00  0.00    -0.182 N 
ATOM      3  C   UNL     1     -16.283   1.482  -7.904  0.00  0.00    +0.285 A 
ATOM      4  C   UNL     1     -15.958   0.824  -6.633  0.00  0.00    +0.082 A 
ATOM      5  C   UNL     1     -16.875  -0.150  -6.565  0.00  0.00    +0.220 A 
ATOM      6  O   UNL     1     -15.621   2.323  -8.486  0.00  0.00    -0.265 OA
ATOM      7  O   UNL     1     -17.805  -0.173  -7.595  0.00  0.00    -0.362 OA
ENDROOT
BRANCH   4   8
ATOM      8  C   UNL     1     -14.802   1.124  -5.706  0.00  0.00    +0.029 C 
ATOM      9  C   UNL     1     -13.896  -0.033  -5.404  0.00  0.00    +0.008 C 
ATOM     10  C   UNL     1     -14.029  -0.006  -3.794  0.00  0.00    +0.001 C 
ATOM     11  C   UNL     1     -13.086   1.166  -3.246  0.00  0.00    +0.000 C 
ATOM     12  C   UNL     1     -13.992   2.322  -3.548  0.00  0.00    +0.001 C 
ATOM     13  C   UNL     1     -15.131   2.121  -4.564  0.00  0.00    +0.008 C 
ENDBRANCH   4   8
BRANCH   5  14
ATOM     14  N   UNL     1     -17.025  -1.107  -5.598  0.00  0.00    -0.327 N 
ATOM     15  H   UNL     1     -16.233  -1.735  -5.506  0.00  0.00    +0.145 HD
ATOM     16  H   UNL     1     -17.309  -0.698  -4.711  0.00  0.00    +0.145 HD
ENDBRANCH   5  14
TORSDOF 2
ENDMDL
MODEL 6
REMARK VINA RESULT:      -5.5     11.355     12.136
REMARK  Name = min_compound91.pdb
REMARK  2 active torsions:
REMARK  status: ('A' for Active; 'I' for Inactive)
REMARK    1  A    between atoms: _6  and  _8
REMARK    2  A    between atoms: _7  and  _14
REMARK                            x       y       z     vdW  Elec       q    Type
REMARK                         _______ _______ _______ _____ _____    ______ ____
ROOT
ATOM      1  H   UNL     1     -18.798  -0.398  -7.517  0.00  0.00    +0.211 HD
ATOM      2  N   UNL     1     -17.822  -0.140  -7.565  0.00  0.00    -0.182 N 
ATOM      3  C   UNL     1     -17.058  -0.121  -6.427  0.00  0.00    +0.285 A 
ATOM      4  C   UNL     1     -15.959   0.828  -6.636  0.00  0.00    +0.082 A 
ATOM      5  C   UNL     1     -16.295   1.415  -7.793  0.00  0.00    +0.220 A 
ATOM      6  O   UNL     1     -17.290  -0.767  -5.422  0.00  0.00    -0.265 OA
ATOM      7  O   UNL     1     -17.439   0.924  -8.406  0.00  0.00    -0.362 OA
ENDROOT
BRANCH   4   8
ATOM      8  C   UNL     1     -14.805   1.126  -5.706  0.00  0.00    +0.029 C 
ATOM      9  C   UNL     1     -13.939  -0.046  -5.352  0.00  0.00    +0.008 C 
ATOM     10  C   UNL     1     -14.089   0.042  -3.746  0.00  0.00    +0.001 C 
ATOM     11  C   UNL     1     -13.117   1.203  -3.228  0.00  0.00    +0.000 C 
ATOM     12  C   UNL     1     -13.983   2.375  -3.581  0.00  0.00    +0.001 C 
ATOM     13  C   UNL     1     -15.116   2.173  -4.604  0.00  0.00    +0.008 C 
ENDBRANCH   4   8
BRANCH   5  14
ATOM     14  N   UNL     1     -15.640   2.417  -8.456  0.00  0.00    -0.327 N 
ATOM     15  H   UNL     1     -15.469   3.246  -7.896  0.00  0.00    +0.145 HD
ATOM     16  H   UNL     1     -14.801   2.073  -8.917  0.00  0.00    +0.145 HD
ENDBRANCH   5  14
TORSDOF 2
ENDMDL
MODEL 7
REMARK VINA RESULT:      -5.3     14.240     15.194
REMARK  Name = min_compound91.pdb
REMARK  2 active torsions:
REMARK  status: ('A' for Active; 'I' for Inactive)
REMARK    1  A    between atoms: _6  and  _8
REMARK    2  A    between atoms: _7  and  _14
REMARK                            x       y       z     vdW  Elec       q    Type
REMARK                         _______ _______ _______ _____ _____    ______ ____
ROOT
ATOM      1  H   UNL     1     -17.745  -2.217  -0.638  0.00  0.00    +0.211 HD
ATOM      2  N   UNL     1     -16.834  -1.831  -0.844  0.00  0.00    -0.182 N 
ATOM      3  C   UNL     1     -16.620  -1.162  -2.021  0.00  0.00    +0.285 A 
ATOM      4  C   UNL     1     -15.193  -1.264  -2.346  0.00  0.00    +0.082 A 
ATOM      5  C   UNL     1     -14.747  -2.142  -1.438  0.00  0.00    +0.220 A 
ATOM      6  O   UNL     1     -17.486  -0.611  -2.676  0.00  0.00    -0.265 OA
ATOM      7  O   UNL     1     -15.686  -2.579  -0.514  0.00  0.00    -0.362 OA
ENDROOT
BRANCH   4   8
ATOM      8  C   UNL     1     -14.458  -0.610  -3.494  0.00  0.00    +0.029 C 
ATOM      9  C   UNL     1     -14.327   0.882  -3.416  0.00  0.00    +0.008 C 
ATOM     10  C   UNL     1     -15.022   1.241  -4.829  0.00  0.00    +0.001 C 
ATOM     11  C   UNL     1     -13.944   0.983  -5.984  0.00  0.00    +0.000 C 
ATOM     12  C   UNL     1     -14.074  -0.509  -6.062  0.00  0.00    +0.001 C 
ATOM     13  C   UNL     1     -14.720  -1.256  -4.880  0.00  0.00    +0.008 C 
ENDBRANCH   4   8
BRANCH   5  14
ATOM     14  N   UNL     1     -13.482  -2.643  -1.293  0.00  0.00    -0.327 N 
ATOM     15  H   UNL     1     -12.907  -2.138  -0.625  0.00  0.00    +0.145 HD
ATOM     16  H   UNL     1     -13.495  -3.646  -1.124  0.00  0.00    +0.145 HD
ENDBRANCH   5  14
TORSDOF 2
ENDMDL
MODEL 8
REMARK VINA RESULT:      -5.0     13.103     13.878
REMARK  Name = min_compound91.pdb
REMARK  2 active torsions:
REMARK  status: ('A' for Active; 'I' for Inactive)
REMARK    1  A    between atoms: _6  and  _8
REMARK    2  A    between atoms: _7  and  _14
REMARK                            x       y       z     vdW  Elec       q    Type
REMARK                         _______ _______ _______ _____ _____    ______ ____
ROOT
ATOM      1  H   UNL     1     -19.638  -1.962  -3.837  0.00  0.00    +0.211 HD
ATOM      2  N   UNL     1     -18.789  -1.790  -4.357  0.00  0.00    -0.182 N 
ATOM      3  C   UNL     1     -17.747  -1.119  -3.772  0.00  0.00    +0.285 A 
ATOM      4  C   UNL     1     -16.966  -0.480  -4.837  0.00  0.00    +0.082 A 
ATOM      5  C   UNL     1     -17.731  -0.673  -5.919  0.00  0.00    +0.220 A 
ATOM      6  O   UNL     1     -17.545  -1.056  -2.573  0.00  0.00    -0.265 OA
ATOM      7  O   UNL     1     -18.884  -1.419  -5.714  0.00  0.00    -0.362 OA
ENDROOT
BRANCH   4   8
ATOM      8  C   UNL     1     -15.673   0.292  -4.698  0.00  0.00    +0.029 C 
ATOM      9  C   UNL     1     -14.450  -0.533  -4.429  0.00  0.00    +0.008 C 
ATOM     10  C   UNL     1     -13.988   0.192  -3.062  0.00  0.00    +0.001 C 
ATOM     11  C   UNL     1     -13.253   1.558  -3.458  0.00  0.00    +0.000 C 
ATOM     12  C   UNL     1     -14.476   2.383  -3.727  0.00  0.00    +0.001 C 
ATOM     13  C   UNL     1     -15.812   1.661  -3.982  0.00  0.00    +0.008 C 
ENDBRANCH   4   8
BRANCH   5  14
ATOM     14  N   UNL     1     -17.508  -0.252  -7.202  0.00  0.00    -0.327 N 
ATOM     15  H   UNL     1     -17.490   0.757  -7.312  0.00  0.00    +0.145 HD
ATOM     16  H   UNL     1     -16.694  -0.707  -7.607  0.00  0.00    +0.145 HD
ENDBRANCH   5  14
TORSDOF 2
ENDMDL
MODEL 9
REMARK VINA RESULT:      -4.9      7.502      9.161
REMARK  Name = min_compound91.pdb
REMARK  2 active torsions:
REMARK  status: ('A' for Active; 'I' for Inactive)
REMARK    1  A    between atoms: _6  and  _8
REMARK    2  A    between atoms: _7  and  _14
REMARK                            x       y       z     vdW  Elec       q    Type
REMARK                         _______ _______ _______ _____ _____    ______ ____
ROOT
ATOM      1  H   UNL     1     -17.738   6.725  -7.552  0.00  0.00    +0.211 HD
ATOM      2  N   UNL     1     -17.117   6.019  -7.921  0.00  0.00    -0.182 N 
ATOM      3  C   UNL     1     -16.881   5.946  -9.270  0.00  0.00    +0.285 A 
ATOM      4  C   UNL     1     -16.505   4.564  -9.589  0.00  0.00    +0.082 A 
ATOM      5  C   UNL     1     -16.746   3.921  -8.439  0.00  0.00    +0.220 A 
ATOM      6  O   UNL     1     -16.997   6.875 -10.048  0.00  0.00    -0.265 OA
ATOM      7  O   UNL     1     -17.167   4.717  -7.383  0.00  0.00    -0.362 OA
ENDROOT
BRANCH   4   8
ATOM      8  C   UNL     1     -16.062   4.012 -10.925  0.00  0.00    +0.029 C 
ATOM      9  C   UNL     1     -14.902   4.716 -11.566  0.00  0.00    +0.008 C 
ATOM     10  C   UNL     1     -15.615   5.092 -12.965  0.00  0.00    +0.001 C 
ATOM     11  C   UNL     1     -15.614   3.780 -13.882  0.00  0.00    +0.000 C 
ATOM     12  C   UNL     1     -16.774   3.076 -13.242  0.00  0.00    +0.001 C 
ATOM     13  C   UNL     1     -17.217   3.515 -11.834  0.00  0.00    +0.008 C 
ENDBRANCH   4   8
BRANCH   5  14
ATOM     14  N   UNL     1     -16.606   2.587  -8.168  0.00  0.00    -0.327 N 
ATOM     15  H   UNL     1     -17.016   2.295  -7.286  0.00  0.00    +0.145 HD
ATOM     16  H   UNL     1     -16.907   2.014  -8.952  0.00  0.00    +0.145 HD
ENDBRANCH   5  14
TORSDOF 2
ENDMDL
