MODEL 1
REMARK VINA RESULT:      -6.5      0.000      0.000
REMARK  Name = min_compound968.pdb
REMARK  3 active torsions:
REMARK  status: ('A' for Active; 'I' for Inactive)
REMARK    1  A    between atoms: _6  and  _17
REMARK    2  A    between atoms: _11  and  _18
REMARK    3  A    between atoms: _16  and  _19
REMARK                            x       y       z     vdW  Elec       q    Type
REMARK                         _______ _______ _______ _____ _____    ______ ____
ROOT
ATOM      1  N   UNL     1     -11.946   4.354 -17.722  0.00  0.00    -0.267 N 
ATOM      2  H   UNL     1     -11.139   4.968 -17.706  0.00  0.00    +0.156 HD
ATOM      3  C   UNL     1     -13.128   5.010 -17.413  0.00  0.00    +0.308 C 
ATOM      4  N   UNL     1     -13.193   6.217 -18.085  0.00  0.00    -0.268 N 
ATOM      5  H   UNL     1     -12.450   6.395 -18.743  0.00  0.00    +0.156 HD
ATOM      6  O   UNL     1     -13.963   4.586 -16.627  0.00  0.00    -0.252 OA
ENDROOT
BRANCH   1  11
ATOM      7  C   UNL     1     -11.033   0.430 -16.379  0.00  0.00    +0.003 A 
ATOM      8  C   UNL     1     -10.460   1.548 -15.778  0.00  0.00    +0.022 A 
ATOM      9  C   UNL     1     -10.768   2.827 -16.250  0.00  0.00    +0.064 A 
ATOM     10 CL   UNL     1     -10.019   4.178 -15.464  0.00  0.00    -0.082 Cl
ATOM     11  C   UNL     1     -11.666   3.017 -17.318  0.00  0.00    +0.072 A 
ATOM     12  C   UNL     1     -12.188   1.875 -17.954  0.00  0.00    +0.064 A 
ATOM     13 CL   UNL     1     -13.067   1.938 -19.447  0.00  0.00    -0.082 Cl
ATOM     14  C   UNL     1     -11.884   0.594 -17.471  0.00  0.00    +0.022 A 
ENDBRANCH   1  11
BRANCH   4  15
ATOM     15  C   UNL     1     -14.251   7.148 -18.054  0.00  0.00    +0.053 A 
ATOM     16  C   UNL     1     -14.441   7.874 -16.877  0.00  0.00    +0.026 A 
ATOM     17  C   UNL     1     -15.457   8.825 -16.798  0.00  0.00    +0.025 A 
ATOM     18  C   UNL     1     -16.268   9.036 -17.907  0.00  0.00    +0.038 A 
ATOM     19  C   UNL     1     -17.360  10.061 -17.863  0.00  0.00    +0.065 C 
ATOM     20  N   UNL     1     -16.115   8.341 -19.056  0.00  0.00    -0.258 NA
ATOM     21  C   UNL     1     -15.117   7.419 -19.107  0.00  0.00    +0.134 A 
ENDBRANCH   4  15
TORSDOF 2
ENDMDL
MODEL 2
REMARK VINA RESULT:      -6.4      2.881      7.427
REMARK  Name = min_compound968.pdb
REMARK  3 active torsions:
REMARK  status: ('A' for Active; 'I' for Inactive)
REMARK    1  A    between atoms: _6  and  _17
REMARK    2  A    between atoms: _11  and  _18
REMARK    3  A    between atoms: _16  and  _19
REMARK                            x       y       z     vdW  Elec       q    Type
REMARK                         _______ _______ _______ _____ _____    ______ ____
ROOT
ATOM      1  N   UNL     1     -14.909   4.721 -16.446  0.00  0.00    -0.267 N 
ATOM      2  H   UNL     1     -15.680   4.205 -16.856  0.00  0.00    +0.156 HD
ATOM      3  C   UNL     1     -13.847   3.905 -16.085  0.00  0.00    +0.308 C 
ATOM      4  N   UNL     1     -13.583   2.994 -17.091  0.00  0.00    -0.268 N 
ATOM      5  H   UNL     1     -14.115   3.108 -17.940  0.00  0.00    +0.156 HD
ATOM      6  O   UNL     1     -13.266   3.971 -15.011  0.00  0.00    -0.252 OA
ENDROOT
BRANCH   1  11
ATOM      7  C   UNL     1     -16.037   8.223 -14.326  0.00  0.00    +0.003 A 
ATOM      8  C   UNL     1     -15.216   8.295 -15.448  0.00  0.00    +0.022 A 
ATOM      9  C   UNL     1     -14.850   7.124 -16.119  0.00  0.00    +0.064 A 
ATOM     10 CL   UNL     1     -13.822   7.277 -17.506  0.00  0.00    -0.082 Cl
ATOM     11  C   UNL     1     -15.308   5.862 -15.693  0.00  0.00    +0.072 A 
ATOM     12  C   UNL     1     -16.086   5.802 -14.522  0.00  0.00    +0.064 A 
ATOM     13 CL   UNL     1     -16.479   4.318 -13.718  0.00  0.00    -0.082 Cl
ATOM     14  C   UNL     1     -16.460   6.980 -13.858  0.00  0.00    +0.022 A 
ENDBRANCH   1  11
BRANCH   4  15
ATOM     15  C   UNL     1     -12.562   2.022 -17.107  0.00  0.00    +0.053 A 
ATOM     16  C   UNL     1     -12.874   0.744 -16.642  0.00  0.00    +0.026 A 
ATOM     17  C   UNL     1     -11.908  -0.262 -16.657  0.00  0.00    +0.025 A 
ATOM     18  C   UNL     1     -10.640   0.033 -17.144  0.00  0.00    +0.038 A 
ATOM     19  C   UNL     1      -9.582  -1.028 -17.189  0.00  0.00    +0.065 C 
ATOM     20  N   UNL     1     -10.305   1.262 -17.591  0.00  0.00    -0.258 NA
ATOM     21  C   UNL     1     -11.265   2.226 -17.565  0.00  0.00    +0.134 A 
ENDBRANCH   4  15
TORSDOF 2
ENDMDL
MODEL 3
REMARK VINA RESULT:      -6.4      3.587      4.312
REMARK  Name = min_compound968.pdb
REMARK  3 active torsions:
REMARK  status: ('A' for Active; 'I' for Inactive)
REMARK    1  A    between atoms: _6  and  _17
REMARK    2  A    between atoms: _11  and  _18
REMARK    3  A    between atoms: _16  and  _19
REMARK                            x       y       z     vdW  Elec       q    Type
REMARK                         _______ _______ _______ _____ _____    ______ ____
ROOT
ATOM      1  N   UNL     1     -13.164   1.837 -16.892  0.00  0.00    -0.267 N 
ATOM      2  H   UNL     1     -13.565   2.105 -17.784  0.00  0.00    +0.156 HD
ATOM      3  C   UNL     1     -13.523   2.693 -15.861  0.00  0.00    +0.308 C 
ATOM      4  N   UNL     1     -14.874   2.980 -15.928  0.00  0.00    -0.268 N 
ATOM      5  H   UNL     1     -15.397   2.477 -16.628  0.00  0.00    +0.156 HD
ATOM      6  O   UNL     1     -12.736   3.150 -15.043  0.00  0.00    -0.252 OA
ENDROOT
BRANCH   1  11
ATOM      7  C   UNL     1      -9.408  -0.127 -17.160  0.00  0.00    +0.003 A 
ATOM      8  C   UNL     1     -10.541  -0.798 -16.706  0.00  0.00    +0.022 A 
ATOM      9  C   UNL     1     -11.761  -0.123 -16.614  0.00  0.00    +0.064 A 
ATOM     10 CL   UNL     1     -13.133  -1.010 -16.037  0.00  0.00    -0.082 Cl
ATOM     11  C   UNL     1     -11.880   1.229 -16.991  0.00  0.00    +0.072 A 
ATOM     12  C   UNL     1     -10.714   1.909 -17.389  0.00  0.00    +0.064 A 
ATOM     13 CL   UNL     1     -10.643   3.628 -17.604  0.00  0.00    -0.082 Cl
ATOM     14  C   UNL     1      -9.494   1.225 -17.489  0.00  0.00    +0.022 A 
ENDBRANCH   1  11
BRANCH   4  15
ATOM     15  C   UNL     1     -15.614   3.786 -15.039  0.00  0.00    +0.053 A 
ATOM     16  C   UNL     1     -16.310   3.148 -14.011  0.00  0.00    +0.026 A 
ATOM     17  C   UNL     1     -17.040   3.898 -13.090  0.00  0.00    +0.025 A 
ATOM     18  C   UNL     1     -17.057   5.283 -13.214  0.00  0.00    +0.038 A 
ATOM     19  C   UNL     1     -17.818   6.121 -12.232  0.00  0.00    +0.065 C 
ATOM     20  N   UNL     1     -16.402   5.927 -14.204  0.00  0.00    -0.258 NA
ATOM     21  C   UNL     1     -15.698   5.173 -15.090  0.00  0.00    +0.134 A 
ENDBRANCH   4  15
TORSDOF 2
ENDMDL
MODEL 4
REMARK VINA RESULT:      -6.3     11.707     12.509
REMARK  Name = min_compound968.pdb
REMARK  3 active torsions:
REMARK  status: ('A' for Active; 'I' for Inactive)
REMARK    1  A    between atoms: _6  and  _17
REMARK    2  A    between atoms: _11  and  _18
REMARK    3  A    between atoms: _16  and  _19
REMARK                            x       y       z     vdW  Elec       q    Type
REMARK                         _______ _______ _______ _____ _____    ______ ____
ROOT
ATOM      1  N   UNL     1     -16.497   1.605  -4.992  0.00  0.00    -0.267 N 
ATOM      2  H   UNL     1     -17.373   1.923  -4.594  0.00  0.00    +0.156 HD
ATOM      3  C   UNL     1     -16.542   1.495  -6.374  0.00  0.00    +0.308 C 
ATOM      4  N   UNL     1     -17.162   2.603  -6.921  0.00  0.00    -0.268 N 
ATOM      5  H   UNL     1     -17.398   3.340  -6.274  0.00  0.00    +0.156 HD
ATOM      6  O   UNL     1     -16.124   0.530  -6.999  0.00  0.00    -0.252 OA
ENDROOT
BRANCH   1  11
ATOM      7  C   UNL     1     -14.463  -1.198  -2.534  0.00  0.00    +0.003 A 
ATOM      8  C   UNL     1     -15.774  -1.420  -2.946  0.00  0.00    +0.022 A 
ATOM      9  C   UNL     1     -16.424  -0.474  -3.744  0.00  0.00    +0.064 A 
ATOM     10 CL   UNL     1     -18.057  -0.805  -4.221  0.00  0.00    -0.082 Cl
ATOM     11  C   UNL     1     -15.773   0.704  -4.160  0.00  0.00    +0.072 A 
ATOM     12  C   UNL     1     -14.470   0.943  -3.684  0.00  0.00    +0.064 A 
ATOM     13 CL   UNL     1     -13.655   2.461  -3.869  0.00  0.00    -0.082 Cl
ATOM     14  C   UNL     1     -13.819  -0.014  -2.893  0.00  0.00    +0.022 A 
ENDBRANCH   1  11
BRANCH   4  15
ATOM     15  C   UNL     1     -17.368   2.869  -8.290  0.00  0.00    +0.053 A 
ATOM     16  C   UNL     1     -16.252   3.189  -9.064  0.00  0.00    +0.026 A 
ATOM     17  C   UNL     1     -16.395   3.440 -10.428  0.00  0.00    +0.025 A 
ATOM     18  C   UNL     1     -17.661   3.361 -10.996  0.00  0.00    +0.038 A 
ATOM     19  C   UNL     1     -17.849   3.610 -12.463  0.00  0.00    +0.065 C 
ATOM     20  N   UNL     1     -18.761   3.065 -10.271  0.00  0.00    -0.258 NA
ATOM     21  C   UNL     1     -18.595   2.826  -8.942  0.00  0.00    +0.134 A 
ENDBRANCH   4  15
TORSDOF 2
ENDMDL
MODEL 5
REMARK VINA RESULT:      -6.3      3.738      7.649
REMARK  Name = min_compound968.pdb
REMARK  3 active torsions:
REMARK  status: ('A' for Active; 'I' for Inactive)
REMARK    1  A    between atoms: _6  and  _17
REMARK    2  A    between atoms: _11  and  _18
REMARK    3  A    between atoms: _16  and  _19
REMARK                            x       y       z     vdW  Elec       q    Type
REMARK                         _______ _______ _______ _____ _____    ______ ____
ROOT
ATOM      1  N   UNL     1     -14.742   4.892 -15.139  0.00  0.00    -0.267 N 
ATOM      2  H   UNL     1     -14.502   5.560 -15.863  0.00  0.00    +0.156 HD
ATOM      3  C   UNL     1     -14.313   3.605 -15.430  0.00  0.00    +0.308 C 
ATOM      4  N   UNL     1     -13.017   3.632 -15.912  0.00  0.00    -0.268 N 
ATOM      5  H   UNL     1     -12.560   4.531 -15.896  0.00  0.00    +0.156 HD
ATOM      6  O   UNL     1     -15.008   2.606 -15.309  0.00  0.00    -0.252 OA
ENDROOT
BRANCH   1  11
ATOM      7  C   UNL     1     -18.477   5.732 -13.299  0.00  0.00    +0.003 A 
ATOM      8  C   UNL     1     -18.322   5.806 -14.681  0.00  0.00    +0.022 A 
ATOM      9  C   UNL     1     -17.078   5.538 -15.258  0.00  0.00    +0.064 A 
ATOM     10 CL   UNL     1     -16.947   5.652 -16.983  0.00  0.00    -0.082 Cl
ATOM     11  C   UNL     1     -15.968   5.173 -14.471  0.00  0.00    +0.072 A 
ATOM     12  C   UNL     1     -16.125   5.163 -13.072  0.00  0.00    +0.064 A 
ATOM     13 CL   UNL     1     -14.797   5.019 -11.969  0.00  0.00    -0.082 Cl
ATOM     14  C   UNL     1     -17.378   5.423 -12.498  0.00  0.00    +0.022 A 
ENDBRANCH   1  11
BRANCH   4  15
ATOM     15  C   UNL     1     -12.229   2.525 -16.286  0.00  0.00    +0.053 A 
ATOM     16  C   UNL     1     -11.142   2.199 -15.473  0.00  0.00    +0.026 A 
ATOM     17  C   UNL     1     -10.341   1.100 -15.783  0.00  0.00    +0.025 A 
ATOM     18  C   UNL     1     -10.648   0.341 -16.906  0.00  0.00    +0.038 A 
ATOM     19  C   UNL     1      -9.818  -0.855 -17.260  0.00  0.00    +0.065 C 
ATOM     20  N   UNL     1     -11.686   0.639 -17.717  0.00  0.00    -0.258 NA
ATOM     21  C   UNL     1     -12.451   1.716 -17.394  0.00  0.00    +0.134 A 
ENDBRANCH   4  15
TORSDOF 2
ENDMDL
MODEL 6
REMARK VINA RESULT:      -6.2     10.462     11.113
REMARK  Name = min_compound968.pdb
REMARK  3 active torsions:
REMARK  status: ('A' for Active; 'I' for Inactive)
REMARK    1  A    between atoms: _6  and  _17
REMARK    2  A    between atoms: _11  and  _18
REMARK    3  A    between atoms: _16  and  _19
REMARK                            x       y       z     vdW  Elec       q    Type
REMARK                         _______ _______ _______ _____ _____    ______ ____
ROOT
ATOM      1  N   UNL     1     -16.663   1.578  -6.361  0.00  0.00    -0.267 N 
ATOM      2  H   UNL     1     -17.622   1.264  -6.456  0.00  0.00    +0.156 HD
ATOM      3  C   UNL     1     -16.140   2.079  -7.544  0.00  0.00    +0.308 C 
ATOM      4  N   UNL     1     -17.059   2.912  -8.156  0.00  0.00    -0.268 N 
ATOM      5  H   UNL     1     -17.901   3.099  -7.633  0.00  0.00    +0.156 HD
ATOM      6  O   UNL     1     -15.039   1.784  -7.987  0.00  0.00    -0.252 OA
ENDROOT
BRANCH   1  11
ATOM      7  C   UNL     1     -14.386  -0.531  -3.461  0.00  0.00    +0.003 A 
ATOM      8  C   UNL     1     -14.664   0.826  -3.311  0.00  0.00    +0.022 A 
ATOM      9  C   UNL     1     -15.405   1.497  -4.288  0.00  0.00    +0.064 A 
ATOM     10 CL   UNL     1     -15.714   3.186  -4.047  0.00  0.00    -0.082 Cl
ATOM     11  C   UNL     1     -15.896   0.827  -5.425  0.00  0.00    +0.072 A 
ATOM     12  C   UNL     1     -15.553  -0.528  -5.592  0.00  0.00    +0.064 A 
ATOM     13 CL   UNL     1     -15.834  -1.404  -7.061  0.00  0.00    -0.082 Cl
ATOM     14  C   UNL     1     -14.820  -1.201  -4.604  0.00  0.00    +0.022 A 
ENDBRANCH   1  11
BRANCH   4  15
ATOM     15  C   UNL     1     -16.884   3.631  -9.355  0.00  0.00    +0.053 A 
ATOM     16  C   UNL     1     -17.130   2.962 -10.555  0.00  0.00    +0.026 A 
ATOM     17  C   UNL     1     -16.994   3.632 -11.771  0.00  0.00    +0.025 A 
ATOM     18  C   UNL     1     -16.615   4.969 -11.762  0.00  0.00    +0.038 A 
ATOM     19  C   UNL     1     -16.474   5.724 -13.049  0.00  0.00    +0.065 C 
ATOM     20  N   UNL     1     -16.359   5.640 -10.617  0.00  0.00    -0.258 NA
ATOM     21  C   UNL     1     -16.498   4.964  -9.445  0.00  0.00    +0.134 A 
ENDBRANCH   4  15
TORSDOF 2
ENDMDL
MODEL 7
REMARK VINA RESULT:      -6.2      3.274      7.504
REMARK  Name = min_compound968.pdb
REMARK  3 active torsions:
REMARK  status: ('A' for Active; 'I' for Inactive)
REMARK    1  A    between atoms: _6  and  _17
REMARK    2  A    between atoms: _11  and  _18
REMARK    3  A    between atoms: _16  and  _19
REMARK                            x       y       z     vdW  Elec       q    Type
REMARK                         _______ _______ _______ _____ _____    ______ ____
ROOT
ATOM      1  N   UNL     1     -15.158   4.411 -16.142  0.00  0.00    -0.267 N 
ATOM      2  H   UNL     1     -15.845   3.843 -16.626  0.00  0.00    +0.156 HD
ATOM      3  C   UNL     1     -14.005   3.709 -15.826  0.00  0.00    +0.308 C 
ATOM      4  N   UNL     1     -13.600   2.947 -16.906  0.00  0.00    -0.268 N 
ATOM      5  H   UNL     1     -14.124   3.076 -17.758  0.00  0.00    +0.156 HD
ATOM      6  O   UNL     1     -13.460   3.741 -14.731  0.00  0.00    -0.252 OA
ENDROOT
BRANCH   1  11
ATOM      7  C   UNL     1     -16.910   7.260 -13.524  0.00  0.00    +0.003 A 
ATOM      8  C   UNL     1     -17.269   5.916 -13.469  0.00  0.00    +0.022 A 
ATOM      9  C   UNL     1     -16.686   5.002 -14.352  0.00  0.00    +0.064 A 
ATOM     10 CL   UNL     1     -17.177   3.344 -14.238  0.00  0.00    -0.082 Cl
ATOM     11  C   UNL     1     -15.722   5.408 -15.295  0.00  0.00    +0.072 A 
ATOM     12  C   UNL     1     -15.417   6.780 -15.380  0.00  0.00    +0.064 A 
ATOM     13 CL   UNL     1     -14.479   7.467 -16.665  0.00  0.00    -0.082 Cl
ATOM     14  C   UNL     1     -15.996   7.691 -14.485  0.00  0.00    +0.022 A 
ENDBRANCH   1  11
BRANCH   4  15
ATOM     15  C   UNL     1     -12.457   2.125 -16.982  0.00  0.00    +0.053 A 
ATOM     16  C   UNL     1     -12.631   0.754 -16.783  0.00  0.00    +0.026 A 
ATOM     17  C   UNL     1     -11.538  -0.109 -16.870  0.00  0.00    +0.025 A 
ATOM     18  C   UNL     1     -10.286   0.420 -17.160  0.00  0.00    +0.038 A 
ATOM     19  C   UNL     1      -9.093  -0.480 -17.275  0.00  0.00    +0.065 C 
ATOM     20  N   UNL     1     -10.086   1.743 -17.346  0.00  0.00    -0.258 NA
ATOM     21  C   UNL     1     -11.167   2.563 -17.255  0.00  0.00    +0.134 A 
ENDBRANCH   4  15
TORSDOF 2
ENDMDL
MODEL 8
REMARK VINA RESULT:      -6.2     15.116     17.777
REMARK  Name = min_compound968.pdb
REMARK  3 active torsions:
REMARK  status: ('A' for Active; 'I' for Inactive)
REMARK    1  A    between atoms: _6  and  _17
REMARK    2  A    between atoms: _11  and  _18
REMARK    3  A    between atoms: _16  and  _19
REMARK                            x       y       z     vdW  Elec       q    Type
REMARK                         _______ _______ _______ _____ _____    ______ ____
ROOT
ATOM      1  N   UNL     1     -15.113  -1.148  -4.198  0.00  0.00    -0.267 N 
ATOM      2  H   UNL     1     -15.348  -1.687  -5.024  0.00  0.00    +0.156 HD
ATOM      3  C   UNL     1     -15.141  -1.905  -3.036  0.00  0.00    +0.308 C 
ATOM      4  N   UNL     1     -14.514  -3.120  -3.243  0.00  0.00    -0.268 N 
ATOM      5  H   UNL     1     -14.066  -3.237  -4.139  0.00  0.00    +0.156 HD
ATOM      6  O   UNL     1     -15.683  -1.550  -1.998  0.00  0.00    -0.252 OA
ENDROOT
BRANCH   1  11
ATOM      7  C   UNL     1     -16.509   2.857  -4.416  0.00  0.00    +0.003 A 
ATOM      8  C   UNL     1     -17.249   1.807  -4.952  0.00  0.00    +0.022 A 
ATOM      9  C   UNL     1     -16.759   0.500  -4.878  0.00  0.00    +0.064 A 
ATOM     10 CL   UNL     1     -17.724  -0.764  -5.567  0.00  0.00    -0.082 Cl
ATOM     11  C   UNL     1     -15.530   0.213  -4.253  0.00  0.00    +0.072 A 
ATOM     12  C   UNL     1     -14.765   1.292  -3.772  0.00  0.00    +0.064 A 
ATOM     13 CL   UNL     1     -13.122   1.132  -3.245  0.00  0.00    -0.082 Cl
ATOM     14  C   UNL     1     -15.266   2.600  -3.839  0.00  0.00    +0.022 A 
ENDBRANCH   1  11
BRANCH   4  15
ATOM     15  C   UNL     1     -14.314  -4.143  -2.294  0.00  0.00    +0.053 A 
ATOM     16  C   UNL     1     -13.218  -4.027  -1.436  0.00  0.00    +0.026 A 
ATOM     17  C   UNL     1     -12.986  -4.999  -0.464  0.00  0.00    +0.025 A 
ATOM     18  C   UNL     1     -13.862  -6.074  -0.365  0.00  0.00    +0.038 A 
ATOM     19  C   UNL     1     -13.651  -7.129   0.679  0.00  0.00    +0.065 C 
ATOM     20  N   UNL     1     -14.923  -6.218  -1.188  0.00  0.00    -0.258 NA
ATOM     21  C   UNL     1     -15.128  -5.257  -2.129  0.00  0.00    +0.134 A 
ENDBRANCH   4  15
TORSDOF 2
ENDMDL
MODEL 9
REMARK VINA RESULT:      -6.2     11.064     11.900
REMARK  Name = min_compound968.pdb
REMARK  3 active torsions:
REMARK  status: ('A' for Active; 'I' for Inactive)
REMARK    1  A    between atoms: _6  and  _17
REMARK    2  A    between atoms: _11  and  _18
REMARK    3  A    between atoms: _16  and  _19
REMARK                            x       y       z     vdW  Elec       q    Type
REMARK                         _______ _______ _______ _____ _____    ______ ____
ROOT
ATOM      1  N   UNL     1     -16.578   1.642  -5.620  0.00  0.00    -0.267 N 
ATOM      2  H   UNL     1     -17.586   1.608  -5.517  0.00  0.00    +0.156 HD
ATOM      3  C   UNL     1     -16.177   1.879  -6.926  0.00  0.00    +0.308 C 
ATOM      4  N   UNL     1     -16.940   2.888  -7.484  0.00  0.00    -0.268 N 
ATOM      5  H   UNL     1     -17.585   3.349  -6.860  0.00  0.00    +0.156 HD
ATOM      6  O   UNL     1     -15.300   1.248  -7.500  0.00  0.00    -0.252 OA
ENDROOT
BRANCH   1  11
ATOM      7  C   UNL     1     -14.569  -1.061  -3.032  0.00  0.00    +0.003 A 
ATOM      8  C   UNL     1     -15.695  -1.455  -3.752  0.00  0.00    +0.022 A 
ATOM      9  C   UNL     1     -16.344  -0.540  -4.586  0.00  0.00    +0.064 A 
ATOM     10 CL   UNL     1     -17.742  -1.088  -5.451  0.00  0.00    -0.082 Cl
ATOM     11  C   UNL     1     -15.874   0.780  -4.731  0.00  0.00    +0.072 A 
ATOM     12  C   UNL     1     -14.774   1.179  -3.950  0.00  0.00    +0.064 A 
ATOM     13 CL   UNL     1     -14.263   2.829  -3.803  0.00  0.00    -0.082 Cl
ATOM     14  C   UNL     1     -14.119   0.255  -3.123  0.00  0.00    +0.022 A 
ENDBRANCH   1  11
BRANCH   4  15
ATOM     15  C   UNL     1     -16.812   3.431  -8.778  0.00  0.00    +0.053 A 
ATOM     16  C   UNL     1     -17.170   2.624  -9.859  0.00  0.00    +0.026 A 
ATOM     17  C   UNL     1     -17.085   3.118 -11.160  0.00  0.00    +0.025 A 
ATOM     18  C   UNL     1     -16.643   4.421 -11.356  0.00  0.00    +0.038 A 
ATOM     19  C   UNL     1     -16.554   4.990 -12.740  0.00  0.00    +0.065 C 
ATOM     20  N   UNL     1     -16.280   5.222 -10.331  0.00  0.00    -0.258 NA
ATOM     21  C   UNL     1     -16.371   4.717  -9.072  0.00  0.00    +0.134 A 
ENDBRANCH   4  15
TORSDOF 2
ENDMDL
