MODEL 1
REMARK VINA RESULT:      -7.2      0.000      0.000
REMARK  Name = min_compound975.pdb
REMARK  5 active torsions:
REMARK  status: ('A' for Active; 'I' for Inactive)
REMARK    1  A    between atoms: _2  and  _15
REMARK    2  A    between atoms: _5  and  _13
REMARK    3  A    between atoms: _7  and  _19
REMARK    4  A    between atoms: _8  and  _18
REMARK    5  A    between atoms: _15  and  _17
REMARK                            x       y       z     vdW  Elec       q    Type
REMARK                         _______ _______ _______ _____ _____    ______ ____
ROOT
ATOM      1  C   UNL     1     -12.914   2.646 -17.626  0.00  0.00    +0.249 C 
ATOM      2  N   UNL     1     -14.067   3.235 -17.165  0.00  0.00    -0.281 N 
ATOM      3  H   UNL     1     -14.503   3.737 -17.934  0.00  0.00    +0.155 HD
ATOM      4  O   UNL     1     -12.567   2.927 -18.776  0.00  0.00    -0.270 OA
ENDROOT
BRANCH   1   7
ATOM      5  C   UNL     1     -10.177   0.987 -15.585  0.00  0.00    +0.016 A 
ATOM      6  C   UNL     1     -10.962   1.961 -16.219  0.00  0.00    +0.071 A 
ATOM      7  C   UNL     1     -12.143   1.615 -16.893  0.00  0.00    +0.051 A 
ATOM      8  C   UNL     1     -12.476   0.257 -16.995  0.00  0.00    +0.014 A 
ATOM      9  C   UNL     1     -11.706  -0.715 -16.346  0.00  0.00    +0.001 A 
ATOM     10  C   UNL     1     -10.563  -0.350 -15.636  0.00  0.00    +0.001 A 
BRANCH   6  11
ATOM     11  C   UNL     1     -10.497   3.351 -16.160  0.00  0.00    +0.338 C 
ATOM     12  O   UNL     1     -10.641   4.118 -15.231  0.00  0.00    -0.245 OA
BRANCH  11  13
ATOM     13  O   UNL     1      -9.880   3.673 -17.310  0.00  0.00    -0.477 OA
ATOM     14  H   UNL     1      -9.142   3.033 -17.379  0.00  0.00    +0.295 HD
ENDBRANCH  11  13
ENDBRANCH   6  11
ENDBRANCH   1   7
BRANCH   2  15
ATOM     15  C   UNL     1     -14.744   3.312 -15.936  0.00  0.00    +0.040 A 
ATOM     16  C   UNL     1     -15.634   2.256 -15.667  0.00  0.00    +0.024 A 
ATOM     17  C   UNL     1     -16.335   2.184 -14.461  0.00  0.00    +0.008 A 
ATOM     18  C   UNL     1     -16.165   3.179 -13.506  0.00  0.00    +0.084 A 
ATOM     19  C   UNL     1     -15.314   4.255 -13.785  0.00  0.00    +0.275 A 
ATOM     20  C   UNL     1     -14.616   4.338 -15.005  0.00  0.00    +0.107 A 
BRANCH  19  21
ATOM     21  N   UNL     1     -15.132   5.300 -12.772  0.00  0.00    +0.080 N 
ATOM     22  O   UNL     1     -15.494   6.450 -13.060  0.00  0.00    +0.041 OA
ATOM     23  O   UNL     1     -14.610   4.978 -11.695  0.00  0.00    -0.576 OA
ENDBRANCH  19  21
ENDBRANCH   2  15
TORSDOF 5
ENDMDL
MODEL 2
REMARK VINA RESULT:      -7.0     11.450     13.742
REMARK  Name = min_compound975.pdb
REMARK  5 active torsions:
REMARK  status: ('A' for Active; 'I' for Inactive)
REMARK    1  A    between atoms: _2  and  _15
REMARK    2  A    between atoms: _5  and  _13
REMARK    3  A    between atoms: _7  and  _19
REMARK    4  A    between atoms: _8  and  _18
REMARK    5  A    between atoms: _15  and  _17
REMARK                            x       y       z     vdW  Elec       q    Type
REMARK                         _______ _______ _______ _____ _____    ______ ____
ROOT
ATOM      1  C   UNL     1     -17.177  -0.700  -4.456  0.00  0.00    +0.249 C 
ATOM      2  N   UNL     1     -17.172  -1.815  -3.653  0.00  0.00    -0.281 N 
ATOM      3  H   UNL     1     -17.959  -2.404  -3.913  0.00  0.00    +0.155 HD
ATOM      4  O   UNL     1     -18.147  -0.557  -5.204  0.00  0.00    -0.270 OA
ENDROOT
BRANCH   1   7
ATOM      5  C   UNL     1     -13.985   0.954  -5.674  0.00  0.00    +0.016 A 
ATOM      6  C   UNL     1     -15.098   0.106  -5.592  0.00  0.00    +0.071 A 
ATOM      7  C   UNL     1     -16.052   0.258  -4.574  0.00  0.00    +0.051 A 
ATOM      8  C   UNL     1     -15.821   1.225  -3.585  0.00  0.00    +0.014 A 
ATOM      9  C   UNL     1     -14.722   2.086  -3.676  0.00  0.00    +0.001 A 
ATOM     10  C   UNL     1     -13.809   1.956  -4.722  0.00  0.00    +0.001 A 
BRANCH   6  11
ATOM     11  C   UNL     1     -15.221  -0.951  -6.601  0.00  0.00    +0.338 C 
ATOM     12  O   UNL     1     -15.848  -0.884  -7.638  0.00  0.00    -0.245 OA
BRANCH  11  13
ATOM     13  O   UNL     1     -14.536  -2.038  -6.208  0.00  0.00    -0.477 OA
ATOM     14  H   UNL     1     -15.007  -2.789  -6.626  0.00  0.00    +0.295 HD
ENDBRANCH  11  13
ENDBRANCH   6  11
ENDBRANCH   1   7
BRANCH   2  15
ATOM     15  C   UNL     1     -16.381  -2.301  -2.599  0.00  0.00    +0.040 A 
ATOM     16  C   UNL     1     -16.759  -1.877  -1.312  0.00  0.00    +0.024 A 
ATOM     17  C   UNL     1     -16.087  -2.322  -0.171  0.00  0.00    +0.008 A 
ATOM     18  C   UNL     1     -15.013  -3.195  -0.302  0.00  0.00    +0.084 A 
ATOM     19  C   UNL     1     -14.605  -3.588  -1.582  0.00  0.00    +0.275 A 
ATOM     20  C   UNL     1     -15.271  -3.130  -2.735  0.00  0.00    +0.107 A 
BRANCH  19  21
ATOM     21  N   UNL     1     -13.475  -4.514  -1.716  0.00  0.00    +0.080 N 
ATOM     22  O   UNL     1     -13.674  -5.584  -2.308  0.00  0.00    +0.041 OA
ATOM     23  O   UNL     1     -12.392  -4.182  -1.212  0.00  0.00    -0.576 OA
ENDBRANCH  19  21
ENDBRANCH   2  15
TORSDOF 5
ENDMDL
MODEL 3
REMARK VINA RESULT:      -7.0      7.724     10.145
REMARK  Name = min_compound975.pdb
REMARK  5 active torsions:
REMARK  status: ('A' for Active; 'I' for Inactive)
REMARK    1  A    between atoms: _2  and  _15
REMARK    2  A    between atoms: _5  and  _13
REMARK    3  A    between atoms: _7  and  _19
REMARK    4  A    between atoms: _8  and  _18
REMARK    5  A    between atoms: _15  and  _17
REMARK                            x       y       z     vdW  Elec       q    Type
REMARK                         _______ _______ _______ _____ _____    ______ ____
ROOT
ATOM      1  C   UNL     1     -17.372   1.028  -5.866  0.00  0.00    +0.249 C 
ATOM      2  N   UNL     1     -17.905   1.856  -6.825  0.00  0.00    -0.281 N 
ATOM      3  H   UNL     1     -18.901   1.668  -6.897  0.00  0.00    +0.155 HD
ATOM      4  O   UNL     1     -18.121   0.168  -5.396  0.00  0.00    -0.270 OA
ENDROOT
BRANCH   1   7
ATOM      5  C   UNL     1     -13.731   0.366  -5.023  0.00  0.00    +0.016 A 
ATOM      6  C   UNL     1     -14.994   0.287  -5.626  0.00  0.00    +0.071 A 
ATOM      7  C   UNL     1     -16.020   1.179  -5.279  0.00  0.00    +0.051 A 
ATOM      8  C   UNL     1     -15.781   2.098  -4.246  0.00  0.00    +0.014 A 
ATOM      9  C   UNL     1     -14.515   2.192  -3.658  0.00  0.00    +0.001 A 
ATOM     10  C   UNL     1     -13.489   1.333  -4.050  0.00  0.00    +0.001 A 
BRANCH   6  11
ATOM     11  C   UNL     1     -15.205  -0.767  -6.624  0.00  0.00    +0.338 C 
ATOM     12  O   UNL     1     -15.793  -0.649  -7.679  0.00  0.00    -0.245 OA
BRANCH  11  13
ATOM     13  O   UNL     1     -14.654  -1.915  -6.196  0.00  0.00    -0.477 OA
ATOM     14  H   UNL     1     -15.169  -2.151  -5.397  0.00  0.00    +0.295 HD
ENDBRANCH  11  13
ENDBRANCH   6  11
ENDBRANCH   1   7
BRANCH   2  15
ATOM     15  C   UNL     1     -17.415   2.845  -7.695  0.00  0.00    +0.040 A 
ATOM     16  C   UNL     1     -16.529   2.393  -8.689  0.00  0.00    +0.024 A 
ATOM     17  C   UNL     1     -16.005   3.262  -9.648  0.00  0.00    +0.008 A 
ATOM     18  C   UNL     1     -16.352   4.608  -9.620  0.00  0.00    +0.084 A 
ATOM     19  C   UNL     1     -17.201   5.073  -8.608  0.00  0.00    +0.275 A 
ATOM     20  C   UNL     1     -17.719   4.202  -7.630  0.00  0.00    +0.107 A 
BRANCH  19  21
ATOM     21  N   UNL     1     -17.570   6.493  -8.585  0.00  0.00    +0.080 N 
ATOM     22  O   UNL     1     -18.341   6.873  -7.692  0.00  0.00    +0.041 OA
ATOM     23  O   UNL     1     -17.105   7.225  -9.470  0.00  0.00    -0.576 OA
ENDBRANCH  19  21
ENDBRANCH   2  15
TORSDOF 5
ENDMDL
MODEL 4
REMARK VINA RESULT:      -6.8      1.368      2.395
REMARK  Name = min_compound975.pdb
REMARK  5 active torsions:
REMARK  status: ('A' for Active; 'I' for Inactive)
REMARK    1  A    between atoms: _2  and  _15
REMARK    2  A    between atoms: _5  and  _13
REMARK    3  A    between atoms: _7  and  _19
REMARK    4  A    between atoms: _8  and  _18
REMARK    5  A    between atoms: _15  and  _17
REMARK                            x       y       z     vdW  Elec       q    Type
REMARK                         _______ _______ _______ _____ _____    ______ ____
ROOT
ATOM      1  C   UNL     1     -12.609   4.219 -16.886  0.00  0.00    +0.249 C 
ATOM      2  N   UNL     1     -13.816   4.585 -16.339  0.00  0.00    -0.281 N 
ATOM      3  H   UNL     1     -14.101   5.470 -16.748  0.00  0.00    +0.155 HD
ATOM      4  O   UNL     1     -12.061   5.041 -17.625  0.00  0.00    -0.270 OA
ENDROOT
BRANCH   1   7
ATOM      5  C   UNL     1     -11.816   0.559 -17.509  0.00  0.00    +0.016 A 
ATOM      6  C   UNL     1     -12.325   1.857 -17.662  0.00  0.00    +0.071 A 
ATOM      7  C   UNL     1     -11.997   2.876 -16.755  0.00  0.00    +0.051 A 
ATOM      8  C   UNL     1     -11.217   2.545 -15.637  0.00  0.00    +0.014 A 
ATOM      9  C   UNL     1     -10.691   1.256 -15.493  0.00  0.00    +0.001 A 
ATOM     10  C   UNL     1     -10.985   0.267 -16.431  0.00  0.00    +0.001 A 
BRANCH   6  11
ATOM     11  C   UNL     1     -13.219   2.106 -18.797  0.00  0.00    +0.338 C 
ATOM     12  O   UNL     1     -14.255   2.738 -18.770  0.00  0.00    -0.245 OA
BRANCH  11  13
ATOM     13  O   UNL     1     -12.730   1.515 -19.901  0.00  0.00    -0.477 OA
ATOM     14  H   UNL     1     -12.044   2.134 -20.225  0.00  0.00    +0.295 HD
ENDBRANCH  11  13
ENDBRANCH   6  11
ENDBRANCH   1   7
BRANCH   2  15
ATOM     15  C   UNL     1     -14.696   4.053 -15.382  0.00  0.00    +0.040 A 
ATOM     16  C   UNL     1     -15.502   2.989 -15.825  0.00  0.00    +0.024 A 
ATOM     17  C   UNL     1     -16.387   2.337 -14.963  0.00  0.00    +0.008 A 
ATOM     18  C   UNL     1     -16.490   2.752 -13.640  0.00  0.00    +0.084 A 
ATOM     19  C   UNL     1     -15.722   3.837 -13.204  0.00  0.00    +0.275 A 
ATOM     20  C   UNL     1     -14.839   4.506 -14.074  0.00  0.00    +0.107 A 
BRANCH  19  21
ATOM     21  N   UNL     1     -15.828   4.268 -11.805  0.00  0.00    +0.080 N 
ATOM     22  O   UNL     1     -14.889   4.924 -11.332  0.00  0.00    +0.041 OA
ATOM     23  O   UNL     1     -16.840   3.934 -11.173  0.00  0.00    -0.576 OA
ENDBRANCH  19  21
ENDBRANCH   2  15
TORSDOF 5
ENDMDL
MODEL 5
REMARK VINA RESULT:      -6.7      3.244      6.038
REMARK  Name = min_compound975.pdb
REMARK  5 active torsions:
REMARK  status: ('A' for Active; 'I' for Inactive)
REMARK    1  A    between atoms: _2  and  _15
REMARK    2  A    between atoms: _5  and  _13
REMARK    3  A    between atoms: _7  and  _19
REMARK    4  A    between atoms: _8  and  _18
REMARK    5  A    between atoms: _15  and  _17
REMARK                            x       y       z     vdW  Elec       q    Type
REMARK                         _______ _______ _______ _____ _____    ______ ____
ROOT
ATOM      1  C   UNL     1     -14.410   5.114 -17.197  0.00  0.00    +0.249 C 
ATOM      2  N   UNL     1     -14.131   3.942 -16.534  0.00  0.00    -0.281 N 
ATOM      3  H   UNL     1     -14.974   3.631 -16.060  0.00  0.00    +0.155 HD
ATOM      4  O   UNL     1     -15.520   5.614 -16.999  0.00  0.00    -0.270 OA
ENDROOT
BRANCH   1   7
ATOM      5  C   UNL     1     -12.591   5.735 -20.470  0.00  0.00    +0.016 A 
ATOM      6  C   UNL     1     -13.473   5.210 -19.515  0.00  0.00    +0.071 A 
ATOM      7  C   UNL     1     -13.531   5.735 -18.215  0.00  0.00    +0.051 A 
ATOM      8  C   UNL     1     -12.620   6.743 -17.864  0.00  0.00    +0.014 A 
ATOM      9  C   UNL     1     -11.754   7.282 -18.821  0.00  0.00    +0.001 A 
ATOM     10  C   UNL     1     -11.744   6.784 -20.124  0.00  0.00    +0.001 A 
BRANCH   6  11
ATOM     11  C   UNL     1     -14.324   4.087 -19.922  0.00  0.00    +0.338 C 
ATOM     12  O   UNL     1     -14.113   2.911 -19.705  0.00  0.00    -0.245 OA
BRANCH  11  13
ATOM     13  O   UNL     1     -15.393   4.545 -20.594  0.00  0.00    -0.477 OA
ATOM     14  H   UNL     1     -15.363   5.516 -20.469  0.00  0.00    +0.295 HD
ENDBRANCH  11  13
ENDBRANCH   6  11
ENDBRANCH   1   7
BRANCH   2  15
ATOM     15  C   UNL     1     -13.004   3.123 -16.355  0.00  0.00    +0.040 A 
ATOM     16  C   UNL     1     -11.857   3.769 -15.859  0.00  0.00    +0.024 A 
ATOM     17  C   UNL     1     -10.682   3.064 -15.591  0.00  0.00    +0.008 A 
ATOM     18  C   UNL     1     -10.632   1.695 -15.828  0.00  0.00    +0.084 A 
ATOM     19  C   UNL     1     -11.755   1.054 -16.362  0.00  0.00    +0.275 A 
ATOM     20  C   UNL     1     -12.937   1.764 -16.647  0.00  0.00    +0.107 A 
BRANCH  19  21
ATOM     21  N   UNL     1     -11.700  -0.392 -16.606  0.00  0.00    +0.080 N 
ATOM     22  O   UNL     1     -12.694  -1.066 -16.301  0.00  0.00    +0.041 OA
ATOM     23  O   UNL     1     -10.656  -0.859 -17.083  0.00  0.00    -0.576 OA
ENDBRANCH  19  21
ENDBRANCH   2  15
TORSDOF 5
ENDMDL
MODEL 6
REMARK VINA RESULT:      -6.6      1.759      2.651
REMARK  Name = min_compound975.pdb
REMARK  5 active torsions:
REMARK  status: ('A' for Active; 'I' for Inactive)
REMARK    1  A    between atoms: _2  and  _15
REMARK    2  A    between atoms: _5  and  _13
REMARK    3  A    between atoms: _7  and  _19
REMARK    4  A    between atoms: _8  and  _18
REMARK    5  A    between atoms: _15  and  _17
REMARK                            x       y       z     vdW  Elec       q    Type
REMARK                         _______ _______ _______ _____ _____    ______ ____
ROOT
ATOM      1  C   UNL     1     -13.817   3.148 -18.125  0.00  0.00    +0.249 C 
ATOM      2  N   UNL     1     -15.012   3.059 -17.451  0.00  0.00    -0.281 N 
ATOM      3  H   UNL     1     -15.708   2.667 -18.079  0.00  0.00    +0.155 HD
ATOM      4  O   UNL     1     -13.837   2.881 -19.329  0.00  0.00    -0.270 OA
ENDROOT
BRANCH   1   7
ATOM      5  C   UNL     1     -10.544   2.588 -16.286  0.00  0.00    +0.016 A 
ATOM      6  C   UNL     1     -11.749   2.352 -16.963  0.00  0.00    +0.071 A 
ATOM      7  C   UNL     1     -12.507   3.411 -17.486  0.00  0.00    +0.051 A 
ATOM      8  C   UNL     1     -12.076   4.722 -17.237  0.00  0.00    +0.014 A 
ATOM      9  C   UNL     1     -10.863   4.960 -16.580  0.00  0.00    +0.001 A 
ATOM     10  C   UNL     1     -10.095   3.895 -16.111  0.00  0.00    +0.001 A 
BRANCH   6  11
ATOM     11  C   UNL     1     -12.192   0.960 -17.094  0.00  0.00    +0.338 C 
ATOM     12  O   UNL     1     -12.955   0.376 -16.353  0.00  0.00    -0.245 OA
BRANCH  11  13
ATOM     13  O   UNL     1     -11.616   0.399 -18.171  0.00  0.00    -0.477 OA
ATOM     14  H   UNL     1     -11.113  -0.361 -17.811  0.00  0.00    +0.295 HD
ENDBRANCH  11  13
ENDBRANCH   6  11
ENDBRANCH   1   7
BRANCH   2  15
ATOM     15  C   UNL     1     -15.476   3.382 -16.165  0.00  0.00    +0.040 A 
ATOM     16  C   UNL     1     -15.996   2.307 -15.421  0.00  0.00    +0.024 A 
ATOM     17  C   UNL     1     -16.447   2.478 -14.111  0.00  0.00    +0.008 A 
ATOM     18  C   UNL     1     -16.396   3.738 -13.525  0.00  0.00    +0.084 A 
ATOM     19  C   UNL     1     -15.918   4.820 -14.273  0.00  0.00    +0.275 A 
ATOM     20  C   UNL     1     -15.476   4.654 -15.600  0.00  0.00    +0.107 A 
BRANCH  19  21
ATOM     21  N   UNL     1     -15.860   6.147 -13.650  0.00  0.00    +0.080 N 
ATOM     22  O   UNL     1     -16.141   6.231 -12.446  0.00  0.00    +0.041 OA
ATOM     23  O   UNL     1     -15.553   7.110 -14.368  0.00  0.00    -0.576 OA
ENDBRANCH  19  21
ENDBRANCH   2  15
TORSDOF 5
ENDMDL
MODEL 7
REMARK VINA RESULT:      -6.6      2.536      5.328
REMARK  Name = min_compound975.pdb
REMARK  5 active torsions:
REMARK  status: ('A' for Active; 'I' for Inactive)
REMARK    1  A    between atoms: _2  and  _15
REMARK    2  A    between atoms: _5  and  _13
REMARK    3  A    between atoms: _7  and  _19
REMARK    4  A    between atoms: _8  and  _18
REMARK    5  A    between atoms: _15  and  _17
REMARK                            x       y       z     vdW  Elec       q    Type
REMARK                         _______ _______ _______ _____ _____    ______ ____
ROOT
ATOM      1  C   UNL     1     -13.366   3.109 -16.239  0.00  0.00    +0.249 C 
ATOM      2  N   UNL     1     -13.765   3.913 -17.281  0.00  0.00    -0.281 N 
ATOM      3  H   UNL     1     -14.270   4.708 -16.900  0.00  0.00    +0.155 HD
ATOM      4  O   UNL     1     -13.782   3.407 -15.117  0.00  0.00    -0.270 OA
ENDROOT
BRANCH   1   7
ATOM      5  C   UNL     1     -10.068   1.264 -16.587  0.00  0.00    +0.016 A 
ATOM      6  C   UNL     1     -11.009   2.286 -16.401  0.00  0.00    +0.071 A 
ATOM      7  C   UNL     1     -12.383   2.006 -16.354  0.00  0.00    +0.051 A 
ATOM      8  C   UNL     1     -12.802   0.688 -16.589  0.00  0.00    +0.014 A 
ATOM      9  C   UNL     1     -11.864  -0.337 -16.754  0.00  0.00    +0.001 A 
ATOM     10  C   UNL     1     -10.499  -0.051 -16.747  0.00  0.00    +0.001 A 
BRANCH   6  11
ATOM     11  C   UNL     1     -10.505   3.656 -16.267  0.00  0.00    +0.338 C 
ATOM     12  O   UNL     1     -10.148   4.193 -15.238  0.00  0.00    -0.245 OA
BRANCH  11  13
ATOM     13  O   UNL     1     -10.499   4.259 -17.468  0.00  0.00    -0.477 OA
ATOM     14  H   UNL     1     -11.379   4.684 -17.532  0.00  0.00    +0.295 HD
ENDBRANCH  11  13
ENDBRANCH   6  11
ENDBRANCH   1   7
BRANCH   2  15
ATOM     15  C   UNL     1     -13.656   3.884 -18.681  0.00  0.00    +0.040 A 
ATOM     16  C   UNL     1     -13.307   5.105 -19.287  0.00  0.00    +0.024 A 
ATOM     17  C   UNL     1     -13.119   5.207 -20.667  0.00  0.00    +0.008 A 
ATOM     18  C   UNL     1     -13.288   4.084 -21.469  0.00  0.00    +0.084 A 
ATOM     19  C   UNL     1     -13.676   2.876 -20.878  0.00  0.00    +0.275 A 
ATOM     20  C   UNL     1     -13.881   2.773 -19.489  0.00  0.00    +0.107 A 
BRANCH  19  21
ATOM     21  N   UNL     1     -13.848   1.691 -21.726  0.00  0.00    +0.080 N 
ATOM     22  O   UNL     1     -14.964   1.152 -21.743  0.00  0.00    +0.041 OA
ATOM     23  O   UNL     1     -12.864   1.286 -22.361  0.00  0.00    -0.576 OA
ENDBRANCH  19  21
ENDBRANCH   2  15
TORSDOF 5
ENDMDL
MODEL 8
REMARK VINA RESULT:      -6.6      7.417     10.194
REMARK  Name = min_compound975.pdb
REMARK  5 active torsions:
REMARK  status: ('A' for Active; 'I' for Inactive)
REMARK    1  A    between atoms: _2  and  _15
REMARK    2  A    between atoms: _5  and  _13
REMARK    3  A    between atoms: _7  and  _19
REMARK    4  A    between atoms: _8  and  _18
REMARK    5  A    between atoms: _15  and  _17
REMARK                            x       y       z     vdW  Elec       q    Type
REMARK                         _______ _______ _______ _____ _____    ______ ____
ROOT
ATOM      1  C   UNL     1     -17.395   1.070  -5.656  0.00  0.00    +0.249 C 
ATOM      2  N   UNL     1     -18.009   1.959  -6.506  0.00  0.00    -0.281 N 
ATOM      3  H   UNL     1     -19.005   1.758  -6.519  0.00  0.00    +0.155 HD
ATOM      4  O   UNL     1     -18.095   0.164  -5.199  0.00  0.00    -0.270 OA
ENDROOT
BRANCH   1   7
ATOM      5  C   UNL     1     -13.690   0.423  -5.146  0.00  0.00    +0.016 A 
ATOM      6  C   UNL     1     -14.994   0.367  -5.658  0.00  0.00    +0.071 A 
ATOM      7  C   UNL     1     -16.005   1.202  -5.159  0.00  0.00    +0.051 A 
ATOM      8  C   UNL     1     -15.703   2.035  -4.072  0.00  0.00    +0.014 A 
ATOM      9  C   UNL     1     -14.398   2.108  -3.573  0.00  0.00    +0.001 A 
ATOM     10  C   UNL     1     -13.391   1.308  -4.113  0.00  0.00    +0.001 A 
BRANCH   6  11
ATOM     11  C   UNL     1     -15.263  -0.603  -6.725  0.00  0.00    +0.338 C 
ATOM     12  O   UNL     1     -15.828  -0.377  -7.775  0.00  0.00    -0.245 OA
BRANCH  11  13
ATOM     13  O   UNL     1     -14.795  -1.812  -6.370  0.00  0.00    -0.477 OA
ATOM     14  H   UNL     1     -14.640  -1.740  -5.405  0.00  0.00    +0.295 HD
ENDBRANCH  11  13
ENDBRANCH   6  11
ENDBRANCH   1   7
BRANCH   2  15
ATOM     15  C   UNL     1     -17.598   3.019  -7.331  0.00  0.00    +0.040 A 
ATOM     16  C   UNL     1     -17.702   4.303  -6.765  0.00  0.00    +0.024 A 
ATOM     17  C   UNL     1     -17.284   5.441  -7.459  0.00  0.00    +0.008 A 
ATOM     18  C   UNL     1     -16.765   5.313  -8.742  0.00  0.00    +0.084 A 
ATOM     19  C   UNL     1     -16.698   4.043  -9.327  0.00  0.00    +0.275 A 
ATOM     20  C   UNL     1     -17.132   2.895  -8.637  0.00  0.00    +0.107 A 
BRANCH  19  21
ATOM     21  N   UNL     1     -16.144   3.911 -10.680  0.00  0.00    +0.080 N 
ATOM     22  O   UNL     1     -16.767   3.213 -11.492  0.00  0.00    +0.041 OA
ATOM     23  O   UNL     1     -15.074   4.487 -10.925  0.00  0.00    -0.576 OA
ENDBRANCH  19  21
ENDBRANCH   2  15
TORSDOF 5
ENDMDL
MODEL 9
REMARK VINA RESULT:      -6.5      2.206      2.742
REMARK  Name = min_compound975.pdb
REMARK  5 active torsions:
REMARK  status: ('A' for Active; 'I' for Inactive)
REMARK    1  A    between atoms: _2  and  _15
REMARK    2  A    between atoms: _5  and  _13
REMARK    3  A    between atoms: _7  and  _19
REMARK    4  A    between atoms: _8  and  _18
REMARK    5  A    between atoms: _15  and  _17
REMARK                            x       y       z     vdW  Elec       q    Type
REMARK                         _______ _______ _______ _____ _____    ______ ____
ROOT
ATOM      1  C   UNL     1     -14.331   3.433 -17.279  0.00  0.00    +0.249 C 
ATOM      2  N   UNL     1     -15.497   3.584 -16.567  0.00  0.00    -0.281 N 
ATOM      3  H   UNL     1     -16.270   3.253 -17.138  0.00  0.00    +0.155 HD
ATOM      4  O   UNL     1     -14.440   3.074 -18.454  0.00  0.00    -0.270 OA
ENDROOT
BRANCH   1   7
ATOM      5  C   UNL     1     -10.850   4.745 -16.523  0.00  0.00    +0.016 A 
ATOM      6  C   UNL     1     -12.167   4.657 -16.996  0.00  0.00    +0.071 A 
ATOM      7  C   UNL     1     -12.971   3.545 -16.702  0.00  0.00    +0.051 A 
ATOM      8  C   UNL     1     -12.397   2.478 -15.996  0.00  0.00    +0.014 A 
ATOM      9  C   UNL     1     -11.089   2.572 -15.506  0.00  0.00    +0.001 A 
ATOM     10  C   UNL     1     -10.320   3.706 -15.763  0.00  0.00    +0.001 A 
BRANCH   6  11
ATOM     11  C   UNL     1     -12.669   5.764 -17.817  0.00  0.00    +0.338 C 
ATOM     12  O   UNL     1     -13.184   6.785 -17.408  0.00  0.00    -0.245 OA
BRANCH  11  13
ATOM     13  O   UNL     1     -12.486   5.485 -19.118  0.00  0.00    -0.477 OA
ATOM     14  H   UNL     1     -12.724   4.539 -19.202  0.00  0.00    +0.295 HD
ENDBRANCH  11  13
ENDBRANCH   6  11
ENDBRANCH   1   7
BRANCH   2  15
ATOM     15  C   UNL     1     -15.854   4.079 -15.301  0.00  0.00    +0.040 A 
ATOM     16  C   UNL     1     -16.147   3.104 -14.330  0.00  0.00    +0.024 A 
ATOM     17  C   UNL     1     -16.470   3.456 -13.018  0.00  0.00    +0.008 A 
ATOM     18  C   UNL     1     -16.517   4.798 -12.658  0.00  0.00    +0.084 A 
ATOM     19  C   UNL     1     -16.268   5.775 -13.630  0.00  0.00    +0.275 A 
ATOM     20  C   UNL     1     -15.957   5.423 -14.957  0.00  0.00    +0.107 A 
BRANCH  19  21
ATOM     21  N   UNL     1     -16.314   7.190 -13.245  0.00  0.00    +0.080 N 
ATOM     22  O   UNL     1     -15.405   7.927 -13.653  0.00  0.00    +0.041 OA
ATOM     23  O   UNL     1     -17.246   7.562 -12.517  0.00  0.00    -0.576 OA
ENDBRANCH  19  21
ENDBRANCH   2  15
TORSDOF 5
ENDMDL
