MODEL 1
REMARK VINA RESULT:      -6.7      0.000      0.000
REMARK  Name = min_compound94.pdb
REMARK  4 active torsions:
REMARK  status: ('A' for Active; 'I' for Inactive)
REMARK    1  A    between atoms: _2  and  _10
REMARK    2  A    between atoms: _2  and  _11
REMARK    3  A    between atoms: _7  and  _13
REMARK    4  A    between atoms: _9  and  _12
REMARK                            x       y       z     vdW  Elec       q    Type
REMARK                         _______ _______ _______ _____ _____    ______ ____
ROOT
ATOM      1  N   UNL     1     -12.649   3.519 -15.968  0.00  0.00    -0.286 NA
ATOM      2  C   UNL     1     -13.776   2.696 -16.421  0.00  0.00    +0.056 C 
ATOM      3  C   UNL     1     -14.970   3.047 -15.521  0.00  0.00    +0.036 C 
ATOM      4  C   UNL     1     -14.119   3.082 -17.866  0.00  0.00    +0.036 C 
ATOM      5  C   UNL     1     -13.447   1.206 -16.257  0.00  0.00    +0.034 C 
ATOM      6  C   UNL     1     -12.212   0.824 -17.062  0.00  0.00    +0.002 C 
ATOM      7  C   UNL     1     -11.071   1.845 -16.923  0.00  0.00    +0.064 C 
ATOM      8  C   UNL     1      -9.899   1.066 -16.315  0.00  0.00    +0.123 C 
ATOM      9  C   UNL     1     -10.124  -0.358 -16.810  0.00  0.00    +0.032 C 
ATOM     10  C   UNL     1     -11.629  -0.536 -16.655  0.00  0.00    +0.007 C 
ATOM     11  C   UNL     1     -11.437   3.117 -16.171  0.00  0.00    +0.017 C 
ATOM     12  C   UNL     1     -10.298   4.009 -15.777  0.00  0.00    +0.060 C 
ENDROOT
BRANCH   8  13
ATOM     13  O   UNL     1      -9.950   1.084 -14.894  0.00  0.00    -0.391 OA
ATOM     14  H   UNL     1     -10.856   1.323 -14.630  0.00  0.00    +0.210 HD
ENDBRANCH   8  13
TORSDOF 1
ENDMDL
MODEL 2
REMARK VINA RESULT:      -6.5      2.381      4.194
REMARK  Name = min_compound94.pdb
REMARK  4 active torsions:
REMARK  status: ('A' for Active; 'I' for Inactive)
REMARK    1  A    between atoms: _2  and  _10
REMARK    2  A    between atoms: _2  and  _11
REMARK    3  A    between atoms: _7  and  _13
REMARK    4  A    between atoms: _9  and  _12
REMARK                            x       y       z     vdW  Elec       q    Type
REMARK                         _______ _______ _______ _____ _____    ______ ____
ROOT
ATOM      1  N   UNL     1     -11.737   0.454 -17.627  0.00  0.00    -0.286 NA
ATOM      2  C   UNL     1     -10.660   0.194 -16.666  0.00  0.00    +0.056 C 
ATOM      3  C   UNL     1     -11.063  -1.060 -15.876  0.00  0.00    +0.036 C 
ATOM      4  C   UNL     1      -9.370  -0.105 -17.442  0.00  0.00    +0.036 C 
ATOM      5  C   UNL     1     -10.517   1.373 -15.694  0.00  0.00    +0.034 C 
ATOM      6  C   UNL     1     -10.204   2.665 -16.437  0.00  0.00    +0.002 C 
ATOM      7  C   UNL     1     -11.070   2.853 -17.694  0.00  0.00    +0.064 C 
ATOM      8  C   UNL     1     -11.853   4.151 -17.459  0.00  0.00    +0.123 C 
ATOM      9  C   UNL     1     -10.932   4.962 -16.555  0.00  0.00    +0.032 C 
ATOM     10  C   UNL     1     -10.413   3.918 -15.576  0.00  0.00    +0.007 C 
ATOM     11  C   UNL     1     -11.935   1.656 -18.062  0.00  0.00    +0.017 C 
ATOM     12  C   UNL     1     -12.987   1.889 -19.106  0.00  0.00    +0.060 C 
ENDROOT
BRANCH   8  13
ATOM     13  O   UNL     1     -13.076   3.898 -16.779  0.00  0.00    -0.391 OA
ATOM     14  H   UNL     1     -13.377   4.736 -16.384  0.00  0.00    +0.210 HD
ENDBRANCH   8  13
TORSDOF 1
ENDMDL
MODEL 3
REMARK VINA RESULT:      -5.8      1.591      3.107
REMARK  Name = min_compound94.pdb
REMARK  4 active torsions:
REMARK  status: ('A' for Active; 'I' for Inactive)
REMARK    1  A    between atoms: _2  and  _10
REMARK    2  A    between atoms: _2  and  _11
REMARK    3  A    between atoms: _7  and  _13
REMARK    4  A    between atoms: _9  and  _12
REMARK                            x       y       z     vdW  Elec       q    Type
REMARK                         _______ _______ _______ _____ _____    ______ ____
ROOT
ATOM      1  N   UNL     1     -12.317   3.331 -16.584  0.00  0.00    -0.286 NA
ATOM      2  C   UNL     1     -10.969   3.875 -16.777  0.00  0.00    +0.056 C 
ATOM      3  C   UNL     1     -11.109   5.087 -17.710  0.00  0.00    +0.036 C 
ATOM      4  C   UNL     1     -10.432   4.356 -15.422  0.00  0.00    +0.036 C 
ATOM      5  C   UNL     1     -10.064   2.832 -17.446  0.00  0.00    +0.034 C 
ATOM      6  C   UNL     1      -9.961   1.569 -16.600  0.00  0.00    +0.002 C 
ATOM      7  C   UNL     1     -11.321   1.112 -16.047  0.00  0.00    +0.064 C 
ATOM      8  C   UNL     1     -11.547  -0.290 -16.626  0.00  0.00    +0.123 C 
ATOM      9  C   UNL     1     -10.133  -0.828 -16.815  0.00  0.00    +0.032 C 
ATOM     10  C   UNL     1      -9.385   0.375 -17.373  0.00  0.00    +0.007 C 
ATOM     11  C   UNL     1     -12.470   2.083 -16.285  0.00  0.00    +0.017 C 
ATOM     12  C   UNL     1     -13.849   1.562 -16.009  0.00  0.00    +0.060 C 
ENDROOT
BRANCH   8  13
ATOM     13  O   UNL     1     -12.198  -0.226 -17.889  0.00  0.00    -0.391 OA
ATOM     14  H   UNL     1     -12.827  -0.968 -17.939  0.00  0.00    +0.210 HD
ENDBRANCH   8  13
TORSDOF 1
ENDMDL
MODEL 4
REMARK VINA RESULT:      -5.7      1.917      3.914
REMARK  Name = min_compound94.pdb
REMARK  4 active torsions:
REMARK  status: ('A' for Active; 'I' for Inactive)
REMARK    1  A    between atoms: _2  and  _10
REMARK    2  A    between atoms: _2  and  _11
REMARK    3  A    between atoms: _7  and  _13
REMARK    4  A    between atoms: _9  and  _12
REMARK                            x       y       z     vdW  Elec       q    Type
REMARK                         _______ _______ _______ _____ _____    ______ ____
ROOT
ATOM      1  N   UNL     1      -9.940   2.203 -16.651  0.00  0.00    -0.286 NA
ATOM      2  C   UNL     1     -10.477   0.840 -16.602  0.00  0.00    +0.056 C 
ATOM      3  C   UNL     1      -9.705   0.021 -17.647  0.00  0.00    +0.036 C 
ATOM      4  C   UNL     1     -10.200   0.250 -15.212  0.00  0.00    +0.036 C 
ATOM      5  C   UNL     1     -11.967   0.841 -16.969  0.00  0.00    +0.034 C 
ATOM      6  C   UNL     1     -12.769   1.714 -16.012  0.00  0.00    +0.002 C 
ATOM      7  C   UNL     1     -12.085   3.060 -15.720  0.00  0.00    +0.064 C 
ATOM      8  C   UNL     1     -13.069   4.130 -16.207  0.00  0.00    +0.123 C 
ATOM      9  C   UNL     1     -14.430   3.463 -16.044  0.00  0.00    +0.032 C 
ATOM     10  C   UNL     1     -14.172   2.045 -16.536  0.00  0.00    +0.007 C 
ATOM     11  C   UNL     1     -10.677   3.199 -16.281  0.00  0.00    +0.017 C 
ATOM     12  C   UNL     1     -10.084   4.577 -16.258  0.00  0.00    +0.060 C 
ENDROOT
BRANCH   8  13
ATOM     13  O   UNL     1     -12.858   4.438 -17.580  0.00  0.00    -0.391 OA
ATOM     14  H   UNL     1     -13.357   3.793 -18.111  0.00  0.00    +0.210 HD
ENDBRANCH   8  13
TORSDOF 1
ENDMDL
MODEL 5
REMARK VINA RESULT:      -5.4      2.433      3.733
REMARK  Name = min_compound94.pdb
REMARK  4 active torsions:
REMARK  status: ('A' for Active; 'I' for Inactive)
REMARK    1  A    between atoms: _2  and  _10
REMARK    2  A    between atoms: _2  and  _11
REMARK    3  A    between atoms: _7  and  _13
REMARK    4  A    between atoms: _9  and  _12
REMARK                            x       y       z     vdW  Elec       q    Type
REMARK                         _______ _______ _______ _____ _____    ______ ____
ROOT
ATOM      1  N   UNL     1     -12.854   4.622 -18.942  0.00  0.00    -0.286 NA
ATOM      2  C   UNL     1     -12.420   5.741 -18.099  0.00  0.00    +0.056 C 
ATOM      3  C   UNL     1     -11.891   6.830 -19.045  0.00  0.00    +0.036 C 
ATOM      4  C   UNL     1     -13.638   6.292 -17.345  0.00  0.00    +0.036 C 
ATOM      5  C   UNL     1     -11.286   5.296 -17.166  0.00  0.00    +0.034 C 
ATOM      6  C   UNL     1     -11.732   4.152 -16.264  0.00  0.00    +0.002 C 
ATOM      7  C   UNL     1     -12.525   3.073 -17.020  0.00  0.00    +0.064 C 
ATOM      8  C   UNL     1     -11.712   1.783 -16.859  0.00  0.00    +0.123 C 
ATOM      9  C   UNL     1     -11.000   1.976 -15.526  0.00  0.00    +0.032 C 
ATOM     10  C   UNL     1     -10.560   3.433 -15.585  0.00  0.00    +0.007 C 
ATOM     11  C   UNL     1     -12.871   3.423 -18.461  0.00  0.00    +0.017 C 
ATOM     12  C   UNL     1     -13.397   2.303 -19.310  0.00  0.00    +0.060 C 
ENDROOT
BRANCH   8  13
ATOM     13  O   UNL     1     -10.745   1.652 -17.895  0.00  0.00    -0.391 OA
ATOM     14  H   UNL     1     -10.109   0.966 -17.624  0.00  0.00    +0.210 HD
ENDBRANCH   8  13
TORSDOF 1
ENDMDL
MODEL 6
REMARK VINA RESULT:      -5.4     11.171     12.491
REMARK  Name = min_compound94.pdb
REMARK  4 active torsions:
REMARK  status: ('A' for Active; 'I' for Inactive)
REMARK    1  A    between atoms: _2  and  _10
REMARK    2  A    between atoms: _2  and  _11
REMARK    3  A    between atoms: _7  and  _13
REMARK    4  A    between atoms: _9  and  _12
REMARK                            x       y       z     vdW  Elec       q    Type
REMARK                         _______ _______ _______ _____ _____    ______ ____
ROOT
ATOM      1  N   UNL     1     -15.687   1.632  -3.587  0.00  0.00    -0.286 NA
ATOM      2  C   UNL     1     -14.303   1.296  -3.935  0.00  0.00    +0.056 C 
ATOM      3  C   UNL     1     -13.456   2.544  -3.644  0.00  0.00    +0.036 C 
ATOM      4  C   UNL     1     -13.829   0.155  -3.024  0.00  0.00    +0.036 C 
ATOM      5  C   UNL     1     -14.197   0.956  -5.428  0.00  0.00    +0.034 C 
ATOM      6  C   UNL     1     -15.089  -0.224  -5.789  0.00  0.00    +0.002 C 
ATOM      7  C   UNL     1     -16.488  -0.127  -5.158  0.00  0.00    +0.064 C 
ATOM      8  C   UNL     1     -17.466  -0.092  -6.339  0.00  0.00    +0.123 C 
ATOM      9  C   UNL     1     -16.738  -0.872  -7.426  0.00  0.00    +0.032 C 
ATOM     10  C   UNL     1     -15.305  -0.372  -7.301  0.00  0.00    +0.007 C 
ATOM     11  C   UNL     1     -16.664   1.010  -4.161  0.00  0.00    +0.017 C 
ATOM     12  C   UNL     1     -18.071   1.308  -3.733  0.00  0.00    +0.060 C 
ENDROOT
BRANCH   8  13
ATOM     13  O   UNL     1     -17.687   1.241  -6.784  0.00  0.00    -0.391 OA
ATOM     14  H   UNL     1     -16.819   1.645  -6.962  0.00  0.00    +0.210 HD
ENDBRANCH   8  13
TORSDOF 1
ENDMDL
MODEL 7
REMARK VINA RESULT:      -5.4      2.407      4.470
REMARK  Name = min_compound94.pdb
REMARK  4 active torsions:
REMARK  status: ('A' for Active; 'I' for Inactive)
REMARK    1  A    between atoms: _2  and  _10
REMARK    2  A    between atoms: _2  and  _11
REMARK    3  A    between atoms: _7  and  _13
REMARK    4  A    between atoms: _9  and  _12
REMARK                            x       y       z     vdW  Elec       q    Type
REMARK                         _______ _______ _______ _____ _____    ______ ____
ROOT
ATOM      1  N   UNL     1     -12.118   1.095 -18.408  0.00  0.00    -0.286 NA
ATOM      2  C   UNL     1     -11.358   1.018 -17.156  0.00  0.00    +0.056 C 
ATOM      3  C   UNL     1     -11.224  -0.473 -16.810  0.00  0.00    +0.036 C 
ATOM      4  C   UNL     1      -9.956   1.596 -17.393  0.00  0.00    +0.036 C 
ATOM      5  C   UNL     1     -12.118   1.727 -16.027  0.00  0.00    +0.034 C 
ATOM      6  C   UNL     1     -12.357   3.194 -16.360  0.00  0.00    +0.002 C 
ATOM      7  C   UNL     1     -12.831   3.405 -17.807  0.00  0.00    +0.064 C 
ATOM      8  C   UNL     1     -14.211   4.064 -17.691  0.00  0.00    +0.123 C 
ATOM      9  C   UNL     1     -14.130   4.829 -16.376  0.00  0.00    +0.032 C 
ATOM     10  C   UNL     1     -13.411   3.849 -15.458  0.00  0.00    +0.007 C 
ATOM     11  C   UNL     1     -12.801   2.158 -18.681  0.00  0.00    +0.017 C 
ATOM     12  C   UNL     1     -13.504   2.254 -20.002  0.00  0.00    +0.060 C 
ENDROOT
BRANCH   8  13
ATOM     13  O   UNL     1     -15.242   3.087 -17.605  0.00  0.00    -0.391 OA
ATOM     14  H   UNL     1     -15.662   3.172 -16.731  0.00  0.00    +0.210 HD
ENDBRANCH   8  13
TORSDOF 1
ENDMDL
MODEL 8
REMARK VINA RESULT:      -5.2     10.586     11.817
REMARK  Name = min_compound94.pdb
REMARK  4 active torsions:
REMARK  status: ('A' for Active; 'I' for Inactive)
REMARK    1  A    between atoms: _2  and  _10
REMARK    2  A    between atoms: _2  and  _11
REMARK    3  A    between atoms: _7  and  _13
REMARK    4  A    between atoms: _9  and  _12
REMARK                            x       y       z     vdW  Elec       q    Type
REMARK                         _______ _______ _______ _____ _____    ______ ____
ROOT
ATOM      1  N   UNL     1     -17.319   0.660  -6.447  0.00  0.00    -0.286 NA
ATOM      2  C   UNL     1     -16.292   0.387  -7.458  0.00  0.00    +0.056 C 
ATOM      3  C   UNL     1     -16.824  -0.756  -8.334  0.00  0.00    +0.036 C 
ATOM      4  C   UNL     1     -16.115   1.636  -8.331  0.00  0.00    +0.036 C 
ATOM      5  C   UNL     1     -14.989  -0.064  -6.784  0.00  0.00    +0.034 C 
ATOM      6  C   UNL     1     -14.463   1.002  -5.832  0.00  0.00    +0.002 C 
ATOM      7  C   UNL     1     -15.568   1.613  -4.954  0.00  0.00    +0.064 C 
ATOM      8  C   UNL     1     -15.160   1.301  -3.509  0.00  0.00    +0.123 C 
ATOM      9  C   UNL     1     -13.639   1.234  -3.577  0.00  0.00    +0.032 C 
ATOM     10  C   UNL     1     -13.391   0.472  -4.871  0.00  0.00    +0.007 C 
ATOM     11  C   UNL     1     -16.984   1.184  -5.314  0.00  0.00    +0.017 C 
ATOM     12  C   UNL     1     -18.057   1.533  -4.326  0.00  0.00    +0.060 C 
ENDROOT
BRANCH   8  13
ATOM     13  O   UNL     1     -15.668   0.039  -3.092  0.00  0.00    -0.391 OA
ATOM     14  H   UNL     1     -16.244  -0.300  -3.800  0.00  0.00    +0.210 HD
ENDBRANCH   8  13
TORSDOF 1
ENDMDL
MODEL 9
REMARK VINA RESULT:      -5.1     12.653     13.737
REMARK  Name = min_compound94.pdb
REMARK  4 active torsions:
REMARK  status: ('A' for Active; 'I' for Inactive)
REMARK    1  A    between atoms: _2  and  _10
REMARK    2  A    between atoms: _2  and  _11
REMARK    3  A    between atoms: _7  and  _13
REMARK    4  A    between atoms: _9  and  _12
REMARK                            x       y       z     vdW  Elec       q    Type
REMARK                         _______ _______ _______ _____ _____    ______ ____
ROOT
ATOM      1  N   UNL     1     -15.961   0.988  -4.628  0.00  0.00    -0.286 NA
ATOM      2  C   UNL     1     -14.532   0.719  -4.814  0.00  0.00    +0.056 C 
ATOM      3  C   UNL     1     -14.193   1.105  -6.262  0.00  0.00    +0.036 C 
ATOM      4  C   UNL     1     -13.731   1.619  -3.864  0.00  0.00    +0.036 C 
ATOM      5  C   UNL     1     -14.242  -0.775  -4.614  0.00  0.00    +0.034 C 
ATOM      6  C   UNL     1     -14.644  -1.232  -3.218  0.00  0.00    +0.002 C 
ATOM      7  C   UNL     1     -16.016  -0.689  -2.787  0.00  0.00    +0.064 C 
ATOM      8  C   UNL     1     -16.886  -1.928  -2.543  0.00  0.00    +0.123 C 
ATOM      9  C   UNL     1     -15.879  -2.992  -2.125  0.00  0.00    +0.032 C 
ATOM     10  C   UNL     1     -14.722  -2.759  -3.087  0.00  0.00    +0.007 C 
ATOM     11  C   UNL     1     -16.629   0.333  -3.736  0.00  0.00    +0.017 C 
ATOM     12  C   UNL     1     -18.069   0.680  -3.501  0.00  0.00    +0.060 C 
ENDROOT
BRANCH   8  13
ATOM     13  O   UNL     1     -17.540  -2.341  -3.737  0.00  0.00    -0.391 OA
ATOM     14  H   UNL     1     -16.856  -2.618  -4.372  0.00  0.00    +0.210 HD
ENDBRANCH   8  13
TORSDOF 1
ENDMDL
