MODEL 1
REMARK VINA RESULT:      -7.5      0.000      0.000
REMARK  Name = min_compound935.pdb
REMARK  4 active torsions:
REMARK  status: ('A' for Active; 'I' for Inactive)
REMARK    1  A    between atoms: _1  and  _7
REMARK    2  A    between atoms: _5  and  _19
REMARK    3  A    between atoms: _8  and  _18
REMARK    4  A    between atoms: _9  and  _20
REMARK                            x       y       z     vdW  Elec       q    Type
REMARK                         _______ _______ _______ _____ _____    ______ ____
ROOT
ATOM      1  C   UNL     1     -12.375   2.931 -17.658  0.00  0.00    +0.042 A 
ATOM      2  C   UNL     1     -11.749   1.799 -17.072  0.00  0.00    -0.006 A 
ATOM      3  C   UNL     1     -12.084   0.457 -17.376  0.00  0.00    +0.009 A 
ATOM      4  C   UNL     1     -11.432  -0.616 -16.764  0.00  0.00    +0.001 A 
ATOM      5  C   UNL     1     -10.432  -0.378 -15.831  0.00  0.00    +0.001 A 
ATOM      6  C   UNL     1     -10.089   0.933 -15.501  0.00  0.00    +0.008 A 
ATOM      7  C   UNL     1     -10.736   2.024 -16.106  0.00  0.00    -0.017 A 
ATOM      8  C   UNL     1     -10.384   3.336 -15.752  0.00  0.00    +0.012 A 
ATOM      9  C   UNL     1     -11.009   4.435 -16.341  0.00  0.00    +0.046 A 
ATOM     10  C   UNL     1     -11.997   4.232 -17.298  0.00  0.00    +0.126 A 
ENDROOT
BRANCH   1  12
ATOM     11  N   UNL     1     -13.264   3.185 -19.895  0.00  0.00    -0.251 NA
ATOM     12  C   UNL     1     -13.412   2.740 -18.689  0.00  0.00    +0.123 C 
BRANCH  11  13
ATOM     13  C   UNL     1     -14.308   2.930 -20.802  0.00  0.00    +0.105 A 
ATOM     14  C   UNL     1     -15.418   3.780 -20.764  0.00  0.00    +0.031 A 
ATOM     15  C   UNL     1     -16.511   3.576 -21.610  0.00  0.00    +0.002 A 
ATOM     16  C   UNL     1     -16.507   2.507 -22.503  0.00  0.00    +0.004 A 
ATOM     17  C   UNL     1     -15.416   1.638 -22.549  0.00  0.00    +0.047 A 
ATOM     18  C   UNL     1     -14.326   1.848 -21.699  0.00  0.00    +0.142 A 
BRANCH  18  19
ATOM     19  O   UNL     1     -13.260   0.985 -21.748  0.00  0.00    -0.505 OA
ATOM     20  H   UNL     1     -12.936   0.853 -20.843  0.00  0.00    +0.292 HD
ENDBRANCH  18  19
ENDBRANCH  11  13
ENDBRANCH   1  12
BRANCH  10  21
ATOM     21  O   UNL     1     -12.550   5.315 -17.920  0.00  0.00    -0.506 OA
ATOM     22  H   UNL     1     -12.120   5.442 -18.780  0.00  0.00    +0.292 HD
ENDBRANCH  10  21
TORSDOF 4
ENDMDL
MODEL 2
REMARK VINA RESULT:      -7.3      3.779      6.334
REMARK  Name = min_compound935.pdb
REMARK  4 active torsions:
REMARK  status: ('A' for Active; 'I' for Inactive)
REMARK    1  A    between atoms: _1  and  _7
REMARK    2  A    between atoms: _5  and  _19
REMARK    3  A    between atoms: _8  and  _18
REMARK    4  A    between atoms: _9  and  _20
REMARK                            x       y       z     vdW  Elec       q    Type
REMARK                         _______ _______ _______ _____ _____    ______ ____
ROOT
ATOM      1  C   UNL     1     -14.390   3.707 -16.425  0.00  0.00    +0.042 A 
ATOM      2  C   UNL     1     -14.289   5.055 -16.860  0.00  0.00    -0.006 A 
ATOM      3  C   UNL     1     -13.081   5.673 -17.265  0.00  0.00    +0.009 A 
ATOM      4  C   UNL     1     -13.046   7.005 -17.683  0.00  0.00    +0.001 A 
ATOM      5  C   UNL     1     -14.213   7.756 -17.704  0.00  0.00    +0.001 A 
ATOM      6  C   UNL     1     -15.416   7.179 -17.298  0.00  0.00    +0.008 A 
ATOM      7  C   UNL     1     -15.470   5.841 -16.874  0.00  0.00    -0.017 A 
ATOM      8  C   UNL     1     -16.688   5.282 -16.459  0.00  0.00    +0.012 A 
ATOM      9  C   UNL     1     -16.767   3.954 -16.037  0.00  0.00    +0.046 A 
ATOM     10  C   UNL     1     -15.621   3.167 -16.028  0.00  0.00    +0.126 A 
ENDROOT
BRANCH   1  12
ATOM     11  N   UNL     1     -13.194   1.676 -16.973  0.00  0.00    -0.251 NA
ATOM     12  C   UNL     1     -13.191   2.848 -16.425  0.00  0.00    +0.123 C 
BRANCH  11  13
ATOM     13  C   UNL     1     -11.990   0.949 -16.933  0.00  0.00    +0.105 A 
ATOM     14  C   UNL     1     -10.825   1.609 -17.341  0.00  0.00    +0.031 A 
ATOM     15  C   UNL     1      -9.594   0.949 -17.360  0.00  0.00    +0.002 A 
ATOM     16  C   UNL     1      -9.517  -0.388 -16.978  0.00  0.00    +0.004 A 
ATOM     17  C   UNL     1     -10.668  -1.069 -16.580  0.00  0.00    +0.047 A 
ATOM     18  C   UNL     1     -11.897  -0.404 -16.563  0.00  0.00    +0.142 A 
BRANCH  18  19
ATOM     19  O   UNL     1     -13.025  -1.083 -16.175  0.00  0.00    -0.505 OA
ATOM     20  H   UNL     1     -13.034  -1.124 -15.205  0.00  0.00    +0.292 HD
ENDBRANCH  18  19
ENDBRANCH  11  13
ENDBRANCH   1  12
BRANCH  10  21
ATOM     21  O   UNL     1     -15.725   1.849 -15.682  0.00  0.00    -0.506 OA
ATOM     22  H   UNL     1     -16.507   1.728 -15.120  0.00  0.00    +0.292 HD
ENDBRANCH  10  21
TORSDOF 4
ENDMDL
MODEL 3
REMARK VINA RESULT:      -7.3     15.578     17.530
REMARK  Name = min_compound935.pdb
REMARK  4 active torsions:
REMARK  status: ('A' for Active; 'I' for Inactive)
REMARK    1  A    between atoms: _1  and  _7
REMARK    2  A    between atoms: _5  and  _19
REMARK    3  A    between atoms: _8  and  _18
REMARK    4  A    between atoms: _9  and  _20
REMARK                            x       y       z     vdW  Elec       q    Type
REMARK                         _______ _______ _______ _____ _____    ______ ____
ROOT
ATOM      1  C   UNL     1     -15.922  -1.045  -3.541  0.00  0.00    +0.042 A 
ATOM      2  C   UNL     1     -15.182   0.166  -3.563  0.00  0.00    -0.006 A 
ATOM      3  C   UNL     1     -13.808   0.267  -3.236  0.00  0.00    +0.009 A 
ATOM      4  C   UNL     1     -13.134   1.490  -3.277  0.00  0.00    +0.001 A 
ATOM      5  C   UNL     1     -13.815   2.644  -3.639  0.00  0.00    +0.001 A 
ATOM      6  C   UNL     1     -15.172   2.579  -3.954  0.00  0.00    +0.008 A 
ATOM      7  C   UNL     1     -15.865   1.358  -3.917  0.00  0.00    -0.017 A 
ATOM      8  C   UNL     1     -17.234   1.315  -4.226  0.00  0.00    +0.012 A 
ATOM      9  C   UNL     1     -17.942   0.113  -4.201  0.00  0.00    +0.046 A 
ATOM     10  C   UNL     1     -17.285  -1.065  -3.866  0.00  0.00    +0.126 A 
ENDROOT
BRANCH   1  12
ATOM     11  N   UNL     1     -15.455  -2.924  -2.088  0.00  0.00    -0.251 NA
ATOM     12  C   UNL     1     -15.241  -2.311  -3.207  0.00  0.00    +0.123 C 
BRANCH  11  13
ATOM     13  C   UNL     1     -14.767  -4.134  -1.882  0.00  0.00    +0.105 A 
ATOM     14  C   UNL     1     -15.435  -5.320  -2.207  0.00  0.00    +0.031 A 
ATOM     15  C   UNL     1     -14.834  -6.564  -2.003  0.00  0.00    +0.002 A 
ATOM     16  C   UNL     1     -13.553  -6.635  -1.459  0.00  0.00    +0.004 A 
ATOM     17  C   UNL     1     -12.873  -5.466  -1.115  0.00  0.00    +0.047 A 
ATOM     18  C   UNL     1     -13.481  -4.224  -1.322  0.00  0.00    +0.142 A 
BRANCH  18  19
ATOM     19  O   UNL     1     -12.806  -3.080  -0.976  0.00  0.00    -0.505 OA
ATOM     20  H   UNL     1     -12.927  -2.934  -0.024  0.00  0.00    +0.292 HD
ENDBRANCH  18  19
ENDBRANCH  11  13
ENDBRANCH   1  12
BRANCH  10  21
ATOM     21  O   UNL     1     -17.973  -2.245  -3.915  0.00  0.00    -0.506 OA
ATOM     22  H   UNL     1     -17.631  -2.781  -4.648  0.00  0.00    +0.292 HD
ENDBRANCH  10  21
TORSDOF 4
ENDMDL
MODEL 4
REMARK VINA RESULT:      -7.2      3.917      5.115
REMARK  Name = min_compound935.pdb
REMARK  4 active torsions:
REMARK  status: ('A' for Active; 'I' for Inactive)
REMARK    1  A    between atoms: _1  and  _7
REMARK    2  A    between atoms: _5  and  _19
REMARK    3  A    between atoms: _8  and  _18
REMARK    4  A    between atoms: _9  and  _20
REMARK                            x       y       z     vdW  Elec       q    Type
REMARK                         _______ _______ _______ _____ _____    ______ ____
ROOT
ATOM      1  C   UNL     1     -12.570   2.941 -16.431  0.00  0.00    +0.042 A 
ATOM      2  C   UNL     1     -11.828   1.747 -16.630  0.00  0.00    -0.006 A 
ATOM      3  C   UNL     1     -12.311   0.449 -16.333  0.00  0.00    +0.009 A 
ATOM      4  C   UNL     1     -11.531  -0.689 -16.551  0.00  0.00    +0.001 A 
ATOM      5  C   UNL     1     -10.249  -0.561 -17.067  0.00  0.00    +0.001 A 
ATOM      6  C   UNL     1      -9.741   0.705 -17.358  0.00  0.00    +0.008 A 
ATOM      7  C   UNL     1     -10.511   1.860 -17.143  0.00  0.00    -0.017 A 
ATOM      8  C   UNL     1      -9.977   3.125 -17.432  0.00  0.00    +0.012 A 
ATOM      9  C   UNL     1     -10.724   4.287 -17.231  0.00  0.00    +0.046 A 
ATOM     10  C   UNL     1     -12.020   4.193 -16.739  0.00  0.00    +0.126 A 
ENDROOT
BRANCH   1  12
ATOM     11  N   UNL     1     -14.358   3.585 -14.932  0.00  0.00    -0.251 NA
ATOM     12  C   UNL     1     -13.955   2.864 -15.928  0.00  0.00    +0.123 C 
BRANCH  11  13
ATOM     13  C   UNL     1     -15.704   3.447 -14.548  0.00  0.00    +0.105 A 
ATOM     14  C   UNL     1     -16.608   2.996 -15.516  0.00  0.00    +0.031 A 
ATOM     15  C   UNL     1     -17.968   2.862 -15.225  0.00  0.00    +0.002 A 
ATOM     16  C   UNL     1     -18.441   3.188 -13.956  0.00  0.00    +0.004 A 
ATOM     17  C   UNL     1     -17.559   3.652 -12.978  0.00  0.00    +0.047 A 
ATOM     18  C   UNL     1     -16.200   3.785 -13.277  0.00  0.00    +0.142 A 
BRANCH  18  19
ATOM     19  O   UNL     1     -15.342   4.246 -12.311  0.00  0.00    -0.505 OA
ATOM     20  H   UNL     1     -14.839   4.989 -12.683  0.00  0.00    +0.292 HD
ENDBRANCH  18  19
ENDBRANCH  11  13
ENDBRANCH   1  12
BRANCH  10  21
ATOM     21  O   UNL     1     -12.767   5.331 -16.616  0.00  0.00    -0.506 OA
ATOM     22  H   UNL     1     -12.348   6.043 -17.125  0.00  0.00    +0.292 HD
ENDBRANCH  10  21
TORSDOF 4
ENDMDL
MODEL 5
REMARK VINA RESULT:      -7.1      3.589      5.917
REMARK  Name = min_compound935.pdb
REMARK  4 active torsions:
REMARK  status: ('A' for Active; 'I' for Inactive)
REMARK    1  A    between atoms: _1  and  _7
REMARK    2  A    between atoms: _5  and  _19
REMARK    3  A    between atoms: _8  and  _18
REMARK    4  A    between atoms: _9  and  _20
REMARK                            x       y       z     vdW  Elec       q    Type
REMARK                         _______ _______ _______ _____ _____    ______ ____
ROOT
ATOM      1  C   UNL     1     -13.218   4.514 -16.588  0.00  0.00    +0.042 A 
ATOM      2  C   UNL     1     -14.319   4.746 -15.722  0.00  0.00    -0.006 A 
ATOM      3  C   UNL     1     -14.749   3.843 -14.719  0.00  0.00    +0.009 A 
ATOM      4  C   UNL     1     -15.842   4.129 -13.897  0.00  0.00    +0.001 A 
ATOM      5  C   UNL     1     -16.536   5.321 -14.057  0.00  0.00    +0.001 A 
ATOM      6  C   UNL     1     -16.144   6.224 -15.045  0.00  0.00    +0.008 A 
ATOM      7  C   UNL     1     -15.048   5.952 -15.881  0.00  0.00    -0.017 A 
ATOM      8  C   UNL     1     -14.677   6.869 -16.876  0.00  0.00    +0.012 A 
ATOM      9  C   UNL     1     -13.590   6.623 -17.716  0.00  0.00    +0.046 A 
ATOM     10  C   UNL     1     -12.858   5.451 -17.566  0.00  0.00    +0.126 A 
ENDROOT
BRANCH   1  12
ATOM     11  N   UNL     1     -12.233   2.464 -17.417  0.00  0.00    -0.251 NA
ATOM     12  C   UNL     1     -12.415   3.286 -16.434  0.00  0.00    +0.123 C 
BRANCH  11  13
ATOM     13  C   UNL     1     -11.434   1.335 -17.165  0.00  0.00    +0.105 A 
ATOM     14  C   UNL     1     -10.080   1.412 -17.511  0.00  0.00    +0.031 A 
ATOM     15  C   UNL     1      -9.226   0.323 -17.323  0.00  0.00    +0.002 A 
ATOM     16  C   UNL     1      -9.722  -0.865 -16.792  0.00  0.00    +0.004 A 
ATOM     17  C   UNL     1     -11.072  -0.969 -16.452  0.00  0.00    +0.047 A 
ATOM     18  C   UNL     1     -11.922   0.124 -16.644  0.00  0.00    +0.142 A 
BRANCH  18  19
ATOM     19  O   UNL     1     -13.248   0.010 -16.311  0.00  0.00    -0.505 OA
ATOM     20  H   UNL     1     -13.775   0.352 -17.051  0.00  0.00    +0.292 HD
ENDBRANCH  18  19
ENDBRANCH  11  13
ENDBRANCH   1  12
BRANCH  10  21
ATOM     21  O   UNL     1     -11.753   5.255 -18.345  0.00  0.00    -0.506 OA
ATOM     22  H   UNL     1     -12.023   4.846 -19.182  0.00  0.00    +0.292 HD
ENDBRANCH  10  21
TORSDOF 4
ENDMDL
MODEL 6
REMARK VINA RESULT:      -7.0      3.829      6.509
REMARK  Name = min_compound935.pdb
REMARK  4 active torsions:
REMARK  status: ('A' for Active; 'I' for Inactive)
REMARK    1  A    between atoms: _1  and  _7
REMARK    2  A    between atoms: _5  and  _19
REMARK    3  A    between atoms: _8  and  _18
REMARK    4  A    between atoms: _9  and  _20
REMARK                            x       y       z     vdW  Elec       q    Type
REMARK                         _______ _______ _______ _____ _____    ______ ____
ROOT
ATOM      1  C   UNL     1     -14.715   4.266 -15.911  0.00  0.00    +0.042 A 
ATOM      2  C   UNL     1     -15.166   4.825 -14.687  0.00  0.00    -0.006 A 
ATOM      3  C   UNL     1     -14.898   4.271 -13.411  0.00  0.00    +0.009 A 
ATOM      4  C   UNL     1     -15.371   4.868 -12.241  0.00  0.00    +0.001 A 
ATOM      5  C   UNL     1     -16.126   6.031 -12.312  0.00  0.00    +0.001 A 
ATOM      6  C   UNL     1     -16.417   6.593 -13.555  0.00  0.00    +0.008 A 
ATOM      7  C   UNL     1     -15.951   6.005 -14.742  0.00  0.00    -0.017 A 
ATOM      8  C   UNL     1     -16.264   6.580 -15.984  0.00  0.00    +0.012 A 
ATOM      9  C   UNL     1     -15.809   6.015 -17.176  0.00  0.00    +0.046 A 
ATOM     10  C   UNL     1     -15.030   4.866 -17.138  0.00  0.00    +0.126 A 
ENDROOT
BRANCH   1  12
ATOM     11  N   UNL     1     -12.660   3.065 -16.352  0.00  0.00    -0.251 NA
ATOM     12  C   UNL     1     -13.870   3.057 -15.895  0.00  0.00    +0.123 C 
BRANCH  11  13
ATOM     13  C   UNL     1     -11.937   1.861 -16.269  0.00  0.00    +0.105 A 
ATOM     14  C   UNL     1     -12.582   0.692 -16.688  0.00  0.00    +0.031 A 
ATOM     15  C   UNL     1     -11.946  -0.549 -16.608  0.00  0.00    +0.002 A 
ATOM     16  C   UNL     1     -10.653  -0.635 -16.097  0.00  0.00    +0.004 A 
ATOM     17  C   UNL     1      -9.996   0.516 -15.661  0.00  0.00    +0.047 A 
ATOM     18  C   UNL     1     -10.638   1.755 -15.743  0.00  0.00    +0.142 A 
BRANCH  18  19
ATOM     19  O   UNL     1      -9.986   2.881 -15.308  0.00  0.00    -0.505 OA
ATOM     20  H   UNL     1      -9.031   2.729 -15.393  0.00  0.00    +0.292 HD
ENDBRANCH  18  19
ENDBRANCH  11  13
ENDBRANCH   1  12
BRANCH  10  21
ATOM     21  O   UNL     1     -14.530   4.365 -18.307  0.00  0.00    -0.506 OA
ATOM     22  H   UNL     1     -15.058   4.699 -19.049  0.00  0.00    +0.292 HD
ENDBRANCH  10  21
TORSDOF 4
ENDMDL
MODEL 7
REMARK VINA RESULT:      -6.7      4.269      6.301
REMARK  Name = min_compound935.pdb
REMARK  4 active torsions:
REMARK  status: ('A' for Active; 'I' for Inactive)
REMARK    1  A    between atoms: _1  and  _7
REMARK    2  A    between atoms: _5  and  _19
REMARK    3  A    between atoms: _8  and  _18
REMARK    4  A    between atoms: _9  and  _20
REMARK                            x       y       z     vdW  Elec       q    Type
REMARK                         _______ _______ _______ _____ _____    ______ ____
ROOT
ATOM      1  C   UNL     1     -13.588   2.959 -16.509  0.00  0.00    +0.042 A 
ATOM      2  C   UNL     1     -12.360   2.249 -16.573  0.00  0.00    -0.006 A 
ATOM      3  C   UNL     1     -11.510   2.025 -15.462  0.00  0.00    +0.009 A 
ATOM      4  C   UNL     1     -10.312   1.318 -15.590  0.00  0.00    +0.001 A 
ATOM      5  C   UNL     1      -9.929   0.821 -16.828  0.00  0.00    +0.001 A 
ATOM      6  C   UNL     1     -10.739   1.038 -17.943  0.00  0.00    +0.008 A 
ATOM      7  C   UNL     1     -11.946   1.747 -17.833  0.00  0.00    -0.017 A 
ATOM      8  C   UNL     1     -12.742   1.964 -18.969  0.00  0.00    +0.012 A 
ATOM      9  C   UNL     1     -13.946   2.662 -18.884  0.00  0.00    +0.046 A 
ATOM     10  C   UNL     1     -14.371   3.151 -17.655  0.00  0.00    +0.126 A 
ENDROOT
BRANCH   1  12
ATOM     11  N   UNL     1     -15.295   3.313 -14.829  0.00  0.00    -0.251 NA
ATOM     12  C   UNL     1     -14.069   3.470 -15.211  0.00  0.00    +0.123 C 
BRANCH  11  13
ATOM     13  C   UNL     1     -15.640   3.824 -13.565  0.00  0.00    +0.105 A 
ATOM     14  C   UNL     1     -14.684   4.598 -12.899  0.00  0.00    +0.031 A 
ATOM     15  C   UNL     1     -14.935   5.116 -11.626  0.00  0.00    +0.002 A 
ATOM     16  C   UNL     1     -16.152   4.855 -10.999  0.00  0.00    +0.004 A 
ATOM     17  C   UNL     1     -17.116   4.074 -11.639  0.00  0.00    +0.047 A 
ATOM     18  C   UNL     1     -16.857   3.559 -12.913  0.00  0.00    +0.142 A 
BRANCH  18  19
ATOM     19  O   UNL     1     -17.808   2.788 -13.532  0.00  0.00    -0.505 OA
ATOM     20  H   UNL     1     -17.373   2.273 -14.230  0.00  0.00    +0.292 HD
ENDBRANCH  18  19
ENDBRANCH  11  13
ENDBRANCH   1  12
BRANCH  10  21
ATOM     21  O   UNL     1     -15.588   3.769 -17.571  0.00  0.00    -0.506 OA
ATOM     22  H   UNL     1     -16.287   3.097 -17.568  0.00  0.00    +0.292 HD
ENDBRANCH  10  21
TORSDOF 4
ENDMDL
MODEL 8
REMARK VINA RESULT:      -6.7     15.502     17.323
REMARK  Name = min_compound935.pdb
REMARK  4 active torsions:
REMARK  status: ('A' for Active; 'I' for Inactive)
REMARK    1  A    between atoms: _1  and  _7
REMARK    2  A    between atoms: _5  and  _19
REMARK    3  A    between atoms: _8  and  _18
REMARK    4  A    between atoms: _9  and  _20
REMARK                            x       y       z     vdW  Elec       q    Type
REMARK                         _______ _______ _______ _____ _____    ______ ____
ROOT
ATOM      1  C   UNL     1     -14.837   0.104  -3.427  0.00  0.00    +0.042 A 
ATOM      2  C   UNL     1     -16.135   0.588  -3.740  0.00  0.00    -0.006 A 
ATOM      3  C   UNL     1     -17.286  -0.229  -3.851  0.00  0.00    +0.009 A 
ATOM      4  C   UNL     1     -18.537   0.308  -4.163  0.00  0.00    +0.001 A 
ATOM      5  C   UNL     1     -18.671   1.673  -4.375  0.00  0.00    +0.001 A 
ATOM      6  C   UNL     1     -17.553   2.502  -4.286  0.00  0.00    +0.008 A 
ATOM      7  C   UNL     1     -16.287   1.979  -3.975  0.00  0.00    -0.017 A 
ATOM      8  C   UNL     1     -15.173   2.828  -3.900  0.00  0.00    +0.012 A 
ATOM      9  C   UNL     1     -13.906   2.332  -3.589  0.00  0.00    +0.046 A 
ATOM     10  C   UNL     1     -13.742   0.974  -3.346  0.00  0.00    +0.126 A 
ENDROOT
BRANCH   1  12
ATOM     11  N   UNL     1     -14.227  -1.749  -1.994  0.00  0.00    -0.251 NA
ATOM     12  C   UNL     1     -14.642  -1.331  -3.146  0.00  0.00    +0.123 C 
BRANCH  11  13
ATOM     13  C   UNL     1     -14.095  -3.140  -1.829  0.00  0.00    +0.105 A 
ATOM     14  C   UNL     1     -15.175  -3.941  -2.215  0.00  0.00    +0.031 A 
ATOM     15  C   UNL     1     -15.137  -5.327  -2.055  0.00  0.00    +0.002 A 
ATOM     16  C   UNL     1     -14.013  -5.931  -1.495  0.00  0.00    +0.004 A 
ATOM     17  C   UNL     1     -12.929  -5.151  -1.090  0.00  0.00    +0.047 A 
ATOM     18  C   UNL     1     -12.974  -3.763  -1.253  0.00  0.00    +0.142 A 
BRANCH  18  19
ATOM     19  O   UNL     1     -11.906  -3.003  -0.848  0.00  0.00    -0.505 OA
ATOM     20  H   UNL     1     -12.176  -2.493  -0.068  0.00  0.00    +0.292 HD
ENDBRANCH  18  19
ENDBRANCH  11  13
ENDBRANCH   1  12
BRANCH  10  21
ATOM     21  O   UNL     1     -12.511   0.512  -2.971  0.00  0.00    -0.506 OA
ATOM     22  H   UNL     1     -12.620  -0.139  -2.259  0.00  0.00    +0.292 HD
ENDBRANCH  10  21
TORSDOF 4
ENDMDL
MODEL 9
REMARK VINA RESULT:      -6.7      5.147      6.881
REMARK  Name = min_compound935.pdb
REMARK  4 active torsions:
REMARK  status: ('A' for Active; 'I' for Inactive)
REMARK    1  A    between atoms: _1  and  _7
REMARK    2  A    between atoms: _5  and  _19
REMARK    3  A    between atoms: _8  and  _18
REMARK    4  A    between atoms: _9  and  _20
REMARK                            x       y       z     vdW  Elec       q    Type
REMARK                         _______ _______ _______ _____ _____    ______ ____
ROOT
ATOM      1  C   UNL     1     -15.830   3.590 -14.428  0.00  0.00    +0.042 A 
ATOM      2  C   UNL     1     -16.065   3.978 -13.082  0.00  0.00    -0.006 A 
ATOM      3  C   UNL     1     -15.054   4.400 -12.186  0.00  0.00    +0.009 A 
ATOM      4  C   UNL     1     -15.349   4.770 -10.872  0.00  0.00    +0.001 A 
ATOM      5  C   UNL     1     -16.660   4.724 -10.417  0.00  0.00    +0.001 A 
ATOM      6  C   UNL     1     -17.676   4.300 -11.273  0.00  0.00    +0.008 A 
ATOM      7  C   UNL     1     -17.397   3.923 -12.597  0.00  0.00    -0.017 A 
ATOM      8  C   UNL     1     -18.432   3.489 -13.439  0.00  0.00    +0.012 A 
ATOM      9  C   UNL     1     -18.180   3.114 -14.759  0.00  0.00    +0.046 A 
ATOM     10  C   UNL     1     -16.883   3.172 -15.253  0.00  0.00    +0.126 A 
ENDROOT
BRANCH   1  12
ATOM     11  N   UNL     1     -13.919   2.653 -15.580  0.00  0.00    -0.251 NA
ATOM     12  C   UNL     1     -14.464   3.661 -14.980  0.00  0.00    +0.123 C 
BRANCH  11  13
ATOM     13  C   UNL     1     -12.619   2.838 -16.086  0.00  0.00    +0.105 A 
ATOM     14  C   UNL     1     -12.096   4.136 -16.062  0.00  0.00    +0.031 A 
ATOM     15  C   UNL     1     -10.826   4.409 -16.574  0.00  0.00    +0.002 A 
ATOM     16  C   UNL     1     -10.064   3.382 -17.127  0.00  0.00    +0.004 A 
ATOM     17  C   UNL     1     -10.571   2.083 -17.173  0.00  0.00    +0.047 A 
ATOM     18  C   UNL     1     -11.844   1.816 -16.659  0.00  0.00    +0.142 A 
BRANCH  18  19
ATOM     19  O   UNL     1     -12.335   0.536 -16.713  0.00  0.00    -0.505 OA
ATOM     20  H   UNL     1     -12.591   0.272 -15.815  0.00  0.00    +0.292 HD
ENDBRANCH  18  19
ENDBRANCH  11  13
ENDBRANCH   1  12
BRANCH  10  21
ATOM     21  O   UNL     1     -16.660   2.871 -16.568  0.00  0.00    -0.506 OA
ATOM     22  H   UNL     1     -16.932   3.624 -17.116  0.00  0.00    +0.292 HD
ENDBRANCH  10  21
TORSDOF 4
ENDMDL
