MODEL 1
REMARK VINA RESULT:      -7.6      0.000      0.000
REMARK  Name = min_compound949.pdb
REMARK  5 active torsions:
REMARK  status: ('A' for Active; 'I' for Inactive)
REMARK    1  A    between atoms: _1  and  _18
REMARK    2  A    between atoms: _2  and  _17
REMARK    3  A    between atoms: _3  and  _19
REMARK    4  A    between atoms: _10  and  _16
REMARK    5  A    between atoms: _16  and  _17
REMARK                            x       y       z     vdW  Elec       q    Type
REMARK                         _______ _______ _______ _____ _____    ______ ____
ROOT
ATOM      1  C   UNL     1     -12.919   6.400 -17.535  0.00  0.00    +0.049 A 
ATOM      2  C   UNL     1     -11.862   7.018 -18.425  0.00  0.00    +0.066 C 
ATOM      3  C   UNL     1     -12.792   4.938 -17.142  0.00  0.00    +0.035 A 
ATOM      4  C   UNL     1     -13.756   4.505 -16.304  0.00  0.00    +0.220 A 
ATOM      5  N   UNL     1     -14.781   5.367 -15.895  0.00  0.00    -0.182 N 
ATOM      6  N   UNL     1     -15.817   5.058 -15.067  0.00  0.00    -0.170 NA
ATOM      7  C   UNL     1     -16.521   6.191 -15.004  0.00  0.00    +0.137 A 
ATOM      8  C   UNL     1     -15.962   7.226 -15.770  0.00  0.00    +0.069 A 
ATOM      9  C   UNL     1     -14.835   6.678 -16.337  0.00  0.00    +0.159 A 
ATOM     10  N   UNL     1     -13.884   7.197 -17.160  0.00  0.00    -0.232 NA
ENDROOT
BRANCH   4  11
ATOM     11  O   UNL     1     -13.779   3.200 -15.827  0.00  0.00    -0.492 OA
ATOM     12  H   UNL     1     -12.907   3.068 -15.391  0.00  0.00    +0.294 HD
ENDBRANCH   4  11
BRANCH   3  13
ATOM     13  C   UNL     1     -11.682   4.053 -17.655  0.00  0.00    +0.047 C 
BRANCH  13  14
ATOM     14  C   UNL     1     -10.420   3.988 -16.675  0.00  0.00    +0.040 C 
BRANCH  14  15
ATOM     15  C   UNL     1     -10.527   1.967 -16.708  0.00  0.00    -0.047 A 
ATOM     16  C   UNL     1      -9.802   1.345 -17.728  0.00  0.00    +0.003 A 
ATOM     17  C   UNL     1      -9.306   0.072 -17.464  0.00  0.00    +0.000 A 
ATOM     18  C   UNL     1      -9.506  -0.519 -16.208  0.00  0.00    +0.000 A 
ATOM     19  C   UNL     1     -10.208   0.153 -15.196  0.00  0.00    +0.000 A 
ATOM     20  C   UNL     1     -10.709   1.428 -15.428  0.00  0.00    +0.003 A 
ENDBRANCH  14  15
ENDBRANCH  13  14
ENDBRANCH   3  13
TORSDOF 4
ENDMDL
MODEL 2
REMARK VINA RESULT:      -7.5      1.265      2.308
REMARK  Name = min_compound949.pdb
REMARK  5 active torsions:
REMARK  status: ('A' for Active; 'I' for Inactive)
REMARK    1  A    between atoms: _1  and  _18
REMARK    2  A    between atoms: _2  and  _17
REMARK    3  A    between atoms: _3  and  _19
REMARK    4  A    between atoms: _10  and  _16
REMARK    5  A    between atoms: _16  and  _17
REMARK                            x       y       z     vdW  Elec       q    Type
REMARK                         _______ _______ _______ _____ _____    ______ ____
ROOT
ATOM      1  C   UNL     1     -13.927   4.267 -16.449  0.00  0.00    +0.049 A 
ATOM      2  C   UNL     1     -13.984   2.790 -16.120  0.00  0.00    +0.066 C 
ATOM      3  C   UNL     1     -12.752   4.801 -17.250  0.00  0.00    +0.035 A 
ATOM      4  C   UNL     1     -12.830   6.118 -17.533  0.00  0.00    +0.220 A 
ATOM      5  N   UNL     1     -13.908   6.882 -17.069  0.00  0.00    -0.182 N 
ATOM      6  N   UNL     1     -14.102   8.215 -17.270  0.00  0.00    -0.170 NA
ATOM      7  C   UNL     1     -15.241   8.470 -16.622  0.00  0.00    +0.137 A 
ATOM      8  C   UNL     1     -15.789   7.332 -16.009  0.00  0.00    +0.069 A 
ATOM      9  C   UNL     1     -14.917   6.313 -16.310  0.00  0.00    +0.159 A 
ATOM     10  N   UNL     1     -14.925   4.986 -16.008  0.00  0.00    -0.232 NA
ENDROOT
BRANCH   4  11
ATOM     11  O   UNL     1     -11.851   6.765 -18.277  0.00  0.00    -0.492 OA
ATOM     12  H   UNL     1     -11.486   6.079 -18.879  0.00  0.00    +0.294 HD
ENDBRANCH   4  11
BRANCH   3  13
ATOM     13  C   UNL     1     -11.600   3.927 -17.682  0.00  0.00    +0.047 C 
BRANCH  13  14
ATOM     14  C   UNL     1     -10.419   3.860 -16.606  0.00  0.00    +0.040 C 
BRANCH  14  15
ATOM     15  C   UNL     1     -10.498   1.839 -16.679  0.00  0.00    -0.047 A 
ATOM     16  C   UNL     1      -9.770   1.247 -17.716  0.00  0.00    +0.003 A 
ATOM     17  C   UNL     1      -9.255  -0.023 -17.480  0.00  0.00    +0.000 A 
ATOM     18  C   UNL     1      -9.440  -0.642 -16.234  0.00  0.00    +0.000 A 
ATOM     19  C   UNL     1     -10.145   0.000 -15.206  0.00  0.00    +0.000 A 
ATOM     20  C   UNL     1     -10.665   1.273 -15.409  0.00  0.00    +0.003 A 
ENDBRANCH  14  15
ENDBRANCH  13  14
ENDBRANCH   3  13
TORSDOF 4
ENDMDL
MODEL 3
REMARK VINA RESULT:      -7.2      3.112      6.469
REMARK  Name = min_compound949.pdb
REMARK  5 active torsions:
REMARK  status: ('A' for Active; 'I' for Inactive)
REMARK    1  A    between atoms: _1  and  _18
REMARK    2  A    between atoms: _2  and  _17
REMARK    3  A    between atoms: _3  and  _19
REMARK    4  A    between atoms: _10  and  _16
REMARK    5  A    between atoms: _16  and  _17
REMARK                            x       y       z     vdW  Elec       q    Type
REMARK                         _______ _______ _______ _____ _____    ______ ____
ROOT
ATOM      1  C   UNL     1     -12.327   2.223 -18.115  0.00  0.00    +0.049 A 
ATOM      2  C   UNL     1     -13.340   2.772 -19.096  0.00  0.00    +0.066 C 
ATOM      3  C   UNL     1     -11.807   3.123 -17.007  0.00  0.00    +0.035 A 
ATOM      4  C   UNL     1     -10.951   2.516 -16.159  0.00  0.00    +0.220 A 
ATOM      5  N   UNL     1     -10.584   1.180 -16.355  0.00  0.00    -0.182 N 
ATOM      6  N   UNL     1      -9.725   0.454 -15.586  0.00  0.00    -0.170 NA
ATOM      7  C   UNL     1      -9.690  -0.737 -16.189  0.00  0.00    +0.137 A 
ATOM      8  C   UNL     1     -10.508  -0.799 -17.328  0.00  0.00    +0.069 A 
ATOM      9  C   UNL     1     -11.082   0.447 -17.420  0.00  0.00    +0.159 A 
ATOM     10  N   UNL     1     -11.971   0.979 -18.302  0.00  0.00    -0.232 NA
ENDROOT
BRANCH   4  11
ATOM     11  O   UNL     1     -10.398   3.187 -15.075  0.00  0.00    -0.492 OA
ATOM     12  H   UNL     1      -9.554   2.720 -14.884  0.00  0.00    +0.294 HD
ENDBRANCH   4  11
BRANCH   3  13
ATOM     13  C   UNL     1     -12.214   4.571 -16.879  0.00  0.00    +0.047 C 
BRANCH  13  14
ATOM     14  C   UNL     1     -10.996   5.589 -17.071  0.00  0.00    +0.040 C 
BRANCH  14  15
ATOM     15  C   UNL     1     -12.093   6.609 -18.432  0.00  0.00    -0.047 A 
ATOM     16  C   UNL     1     -11.938   6.196 -19.759  0.00  0.00    +0.003 A 
ATOM     17  C   UNL     1     -13.033   6.355 -20.601  0.00  0.00    +0.000 A 
ATOM     18  C   UNL     1     -14.239   6.873 -20.105  0.00  0.00    +0.000 A 
ATOM     19  C   UNL     1     -14.366   7.242 -18.758  0.00  0.00    +0.000 A 
ATOM     20  C   UNL     1     -13.292   7.089 -17.890  0.00  0.00    +0.003 A 
ENDBRANCH  14  15
ENDBRANCH  13  14
ENDBRANCH   3  13
TORSDOF 4
ENDMDL
MODEL 4
REMARK VINA RESULT:      -7.2      3.331      6.486
REMARK  Name = min_compound949.pdb
REMARK  5 active torsions:
REMARK  status: ('A' for Active; 'I' for Inactive)
REMARK    1  A    between atoms: _1  and  _18
REMARK    2  A    between atoms: _2  and  _17
REMARK    3  A    between atoms: _3  and  _19
REMARK    4  A    between atoms: _10  and  _16
REMARK    5  A    between atoms: _16  and  _17
REMARK                            x       y       z     vdW  Elec       q    Type
REMARK                         _______ _______ _______ _____ _____    ______ ____
ROOT
ATOM      1  C   UNL     1     -12.385   1.869 -18.190  0.00  0.00    +0.049 A 
ATOM      2  C   UNL     1     -13.335   2.344 -19.269  0.00  0.00    +0.066 C 
ATOM      3  C   UNL     1     -12.289   2.652 -16.892  0.00  0.00    +0.035 A 
ATOM      4  C   UNL     1     -11.455   2.111 -15.980  0.00  0.00    +0.220 A 
ATOM      5  N   UNL     1     -10.739   0.945 -16.277  0.00  0.00    -0.182 N 
ATOM      6  N   UNL     1      -9.860   0.304 -15.458  0.00  0.00    -0.170 NA
ATOM      7  C   UNL     1      -9.433  -0.725 -16.195  0.00  0.00    +0.137 A 
ATOM      8  C   UNL     1     -10.018  -0.765 -17.470  0.00  0.00    +0.069 A 
ATOM      9  C   UNL     1     -10.863   0.319 -17.506  0.00  0.00    +0.159 A 
ATOM     10  N   UNL     1     -11.705   0.788 -18.467  0.00  0.00    -0.232 NA
ENDROOT
BRANCH   4  11
ATOM     11  O   UNL     1     -11.266   2.686 -14.730  0.00  0.00    -0.492 OA
ATOM     12  H   UNL     1     -11.036   3.625 -14.908  0.00  0.00    +0.294 HD
ENDBRANCH   4  11
BRANCH   3  13
ATOM     13  C   UNL     1     -13.060   3.928 -16.655  0.00  0.00    +0.047 C 
BRANCH  13  14
ATOM     14  C   UNL     1     -14.616   3.800 -17.001  0.00  0.00    +0.040 C 
BRANCH  14  15
ATOM     15  C   UNL     1     -14.992   3.389 -15.055  0.00  0.00    -0.047 A 
ATOM     16  C   UNL     1     -14.714   4.426 -14.159  0.00  0.00    +0.003 A 
ATOM     17  C   UNL     1     -15.489   4.488 -13.006  0.00  0.00    +0.000 A 
ATOM     18  C   UNL     1     -16.522   3.562 -12.796  0.00  0.00    +0.000 A 
ATOM     19  C   UNL     1     -16.794   2.558 -13.737  0.00  0.00    +0.000 A 
ATOM     20  C   UNL     1     -16.041   2.475 -14.902  0.00  0.00    +0.003 A 
ENDBRANCH  14  15
ENDBRANCH  13  14
ENDBRANCH   3  13
TORSDOF 4
ENDMDL
MODEL 5
REMARK VINA RESULT:      -7.1     14.539     16.809
REMARK  Name = min_compound949.pdb
REMARK  5 active torsions:
REMARK  status: ('A' for Active; 'I' for Inactive)
REMARK    1  A    between atoms: _1  and  _18
REMARK    2  A    between atoms: _2  and  _17
REMARK    3  A    between atoms: _3  and  _19
REMARK    4  A    between atoms: _10  and  _16
REMARK    5  A    between atoms: _16  and  _17
REMARK                            x       y       z     vdW  Elec       q    Type
REMARK                         _______ _______ _______ _____ _____    ______ ____
ROOT
ATOM      1  C   UNL     1     -16.751  -3.779  -2.331  0.00  0.00    +0.049 A 
ATOM      2  C   UNL     1     -17.635  -2.552  -2.393  0.00  0.00    +0.066 C 
ATOM      3  C   UNL     1     -15.242  -3.605  -2.373  0.00  0.00    +0.035 A 
ATOM      4  C   UNL     1     -14.551  -4.758  -2.257  0.00  0.00    +0.220 A 
ATOM      5  N   UNL     1     -15.222  -5.981  -2.146  0.00  0.00    -0.182 N 
ATOM      6  N   UNL     1     -14.650  -7.212  -2.035  0.00  0.00    -0.170 NA
ATOM      7  C   UNL     1     -15.694  -8.043  -1.982  0.00  0.00    +0.137 A 
ATOM      8  C   UNL     1     -16.928  -7.377  -2.052  0.00  0.00    +0.069 A 
ATOM      9  C   UNL     1     -16.606  -6.044  -2.154  0.00  0.00    +0.159 A 
ATOM     10  N   UNL     1     -17.373  -4.924  -2.240  0.00  0.00    -0.232 NA
ENDROOT
BRANCH   4  11
ATOM     11  O   UNL     1     -13.161  -4.779  -2.253  0.00  0.00    -0.492 OA
ATOM     12  H   UNL     1     -12.916  -5.640  -1.847  0.00  0.00    +0.294 HD
ENDBRANCH   4  11
BRANCH   3  13
ATOM     13  C   UNL     1     -14.584  -2.257  -2.537  0.00  0.00    +0.047 C 
BRANCH  13  14
ATOM     14  C   UNL     1     -14.540  -1.756  -4.055  0.00  0.00    +0.040 C 
BRANCH  14  15
ATOM     15  C   UNL     1     -14.719   0.153  -3.407  0.00  0.00    -0.047 A 
ATOM     16  C   UNL     1     -13.529   0.886  -3.364  0.00  0.00    +0.003 A 
ATOM     17  C   UNL     1     -13.627   2.259  -3.562  0.00  0.00    +0.000 A 
ATOM     18  C   UNL     1     -14.872   2.850  -3.830  0.00  0.00    +0.000 A 
ATOM     19  C   UNL     1     -16.038   2.074  -3.902  0.00  0.00    +0.000 A 
ATOM     20  C   UNL     1     -15.972   0.699  -3.715  0.00  0.00    +0.003 A 
ENDBRANCH  14  15
ENDBRANCH  13  14
ENDBRANCH   3  13
TORSDOF 4
ENDMDL
MODEL 6
REMARK VINA RESULT:      -7.1      3.169      6.472
REMARK  Name = min_compound949.pdb
REMARK  5 active torsions:
REMARK  status: ('A' for Active; 'I' for Inactive)
REMARK    1  A    between atoms: _1  and  _18
REMARK    2  A    between atoms: _2  and  _17
REMARK    3  A    between atoms: _3  and  _19
REMARK    4  A    between atoms: _10  and  _16
REMARK    5  A    between atoms: _16  and  _17
REMARK                            x       y       z     vdW  Elec       q    Type
REMARK                         _______ _______ _______ _____ _____    ______ ____
ROOT
ATOM      1  C   UNL     1     -10.792   3.233 -16.418  0.00  0.00    +0.049 A 
ATOM      2  C   UNL     1     -10.463   4.700 -16.243  0.00  0.00    +0.066 C 
ATOM      3  C   UNL     1     -12.192   2.744 -16.089  0.00  0.00    +0.035 A 
ATOM      4  C   UNL     1     -12.391   1.432 -16.333  0.00  0.00    +0.220 A 
ATOM      5  N   UNL     1     -11.347   0.633 -16.813  0.00  0.00    -0.182 N 
ATOM      6  N   UNL     1     -11.407  -0.700 -17.087  0.00  0.00    -0.170 NA
ATOM      7  C   UNL     1     -10.169  -0.997 -17.489  0.00  0.00    +0.137 A 
ATOM      8  C   UNL     1      -9.310   0.114 -17.484  0.00  0.00    +0.069 A 
ATOM      9  C   UNL     1     -10.088   1.160 -17.048  0.00  0.00    +0.159 A 
ATOM     10  N   UNL     1      -9.817   2.480 -16.854  0.00  0.00    -0.232 NA
ENDROOT
BRANCH   4  11
ATOM     11  O   UNL     1     -13.621   0.826 -16.110  0.00  0.00    -0.492 OA
ATOM     12  H   UNL     1     -14.037   1.341 -15.384  0.00  0.00    +0.294 HD
ENDBRANCH   4  11
BRANCH   3  13
ATOM     13  C   UNL     1     -13.260   3.655 -15.534  0.00  0.00    +0.047 C 
BRANCH  13  14
ATOM     14  C   UNL     1     -14.325   4.123 -16.631  0.00  0.00    +0.040 C 
BRANCH  14  15
ATOM     15  C   UNL     1     -15.770   4.077 -15.216  0.00  0.00    -0.047 A 
ATOM     16  C   UNL     1     -16.352   2.825 -14.992  0.00  0.00    +0.003 A 
ATOM     17  C   UNL     1     -16.823   2.569 -13.709  0.00  0.00    +0.000 A 
ATOM     18  C   UNL     1     -16.673   3.527 -12.694  0.00  0.00    +0.000 A 
ATOM     19  C   UNL     1     -16.051   4.758 -12.950  0.00  0.00    +0.000 A 
ATOM     20  C   UNL     1     -15.564   5.040 -14.220  0.00  0.00    +0.003 A 
ENDBRANCH  14  15
ENDBRANCH  13  14
ENDBRANCH   3  13
TORSDOF 4
ENDMDL
MODEL 7
REMARK VINA RESULT:      -7.1      2.808      6.717
REMARK  Name = min_compound949.pdb
REMARK  5 active torsions:
REMARK  status: ('A' for Active; 'I' for Inactive)
REMARK    1  A    between atoms: _1  and  _18
REMARK    2  A    between atoms: _2  and  _17
REMARK    3  A    between atoms: _3  and  _19
REMARK    4  A    between atoms: _10  and  _16
REMARK    5  A    between atoms: _16  and  _17
REMARK                            x       y       z     vdW  Elec       q    Type
REMARK                         _______ _______ _______ _____ _____    ______ ____
ROOT
ATOM      1  C   UNL     1     -10.999   3.247 -16.653  0.00  0.00    +0.049 A 
ATOM      2  C   UNL     1     -10.787   4.745 -16.582  0.00  0.00    +0.066 C 
ATOM      3  C   UNL     1     -12.359   2.675 -16.292  0.00  0.00    +0.035 A 
ATOM      4  C   UNL     1     -12.453   1.338 -16.442  0.00  0.00    +0.220 A 
ATOM      5  N   UNL     1     -11.346   0.591 -16.862  0.00  0.00    -0.182 N 
ATOM      6  N   UNL     1     -11.300  -0.759 -17.041  0.00  0.00    -0.170 NA
ATOM      7  C   UNL     1     -10.040  -0.986 -17.419  0.00  0.00    +0.137 A 
ATOM      8  C   UNL     1      -9.271   0.187 -17.493  0.00  0.00    +0.069 A 
ATOM      9  C   UNL     1     -10.131   1.197 -17.133  0.00  0.00    +0.159 A 
ATOM     10  N   UNL     1      -9.965   2.545 -17.033  0.00  0.00    -0.232 NA
ENDROOT
BRANCH   4  11
ATOM     11  O   UNL     1     -13.633   0.654 -16.178  0.00  0.00    -0.492 OA
ATOM     12  H   UNL     1     -14.275   1.343 -15.897  0.00  0.00    +0.294 HD
ENDBRANCH   4  11
BRANCH   3  13
ATOM     13  C   UNL     1     -13.498   3.537 -15.804  0.00  0.00    +0.047 C 
BRANCH  13  14
ATOM     14  C   UNL     1     -14.568   3.874 -16.943  0.00  0.00    +0.040 C 
BRANCH  14  15
ATOM     15  C   UNL     1     -14.368   5.842 -16.517  0.00  0.00    -0.047 A 
ATOM     16  C   UNL     1     -13.776   6.616 -17.520  0.00  0.00    +0.003 A 
ATOM     17  C   UNL     1     -14.166   7.949 -17.601  0.00  0.00    +0.000 A 
ATOM     18  C   UNL     1     -15.141   8.456 -16.729  0.00  0.00    +0.000 A 
ATOM     19  C   UNL     1     -15.739   7.638 -15.760  0.00  0.00    +0.000 A 
ATOM     20  C   UNL     1     -15.375   6.301 -15.658  0.00  0.00    +0.003 A 
ENDBRANCH  14  15
ENDBRANCH  13  14
ENDBRANCH   3  13
TORSDOF 4
ENDMDL
MODEL 8
REMARK VINA RESULT:      -7.0     11.027     13.323
REMARK  Name = min_compound949.pdb
REMARK  5 active torsions:
REMARK  status: ('A' for Active; 'I' for Inactive)
REMARK    1  A    between atoms: _1  and  _18
REMARK    2  A    between atoms: _2  and  _17
REMARK    3  A    between atoms: _3  and  _19
REMARK    4  A    between atoms: _10  and  _16
REMARK    5  A    between atoms: _16  and  _17
REMARK                            x       y       z     vdW  Elec       q    Type
REMARK                         _______ _______ _______ _____ _____    ______ ____
ROOT
ATOM      1  C   UNL     1     -14.296   0.886  -4.023  0.00  0.00    +0.049 A 
ATOM      2  C   UNL     1     -14.151   2.389  -4.134  0.00  0.00    +0.066 C 
ATOM      3  C   UNL     1     -14.401   0.058  -5.293  0.00  0.00    +0.035 A 
ATOM      4  C   UNL     1     -14.471  -1.272  -5.080  0.00  0.00    +0.220 A 
ATOM      5  N   UNL     1     -14.479  -1.784  -3.778  0.00  0.00    -0.182 N 
ATOM      6  N   UNL     1     -14.559  -3.097  -3.423  0.00  0.00    -0.170 NA
ATOM      7  C   UNL     1     -14.554  -3.066  -2.088  0.00  0.00    +0.137 A 
ATOM      8  C   UNL     1     -14.469  -1.763  -1.571  0.00  0.00    +0.069 A 
ATOM      9  C   UNL     1     -14.418  -0.946  -2.676  0.00  0.00    +0.159 A 
ATOM     10  N   UNL     1     -14.317   0.405  -2.809  0.00  0.00    -0.232 NA
ENDROOT
BRANCH   4  11
ATOM     11  O   UNL     1     -14.548  -2.177  -6.132  0.00  0.00    -0.492 OA
ATOM     12  H   UNL     1     -13.996  -2.943  -5.857  0.00  0.00    +0.294 HD
ENDBRANCH   4  11
BRANCH   3  13
ATOM     13  C   UNL     1     -14.428   0.681  -6.668  0.00  0.00    +0.047 C 
BRANCH  13  14
ATOM     14  C   UNL     1     -15.747   0.322  -7.497  0.00  0.00    +0.040 C 
BRANCH  14  15
ATOM     15  C   UNL     1     -16.121   2.299  -7.715  0.00  0.00    -0.047 A 
ATOM     16  C   UNL     1     -16.005   2.792  -9.018  0.00  0.00    +0.003 A 
ATOM     17  C   UNL     1     -16.813   3.871  -9.359  0.00  0.00    +0.000 A 
ATOM     18  C   UNL     1     -17.723   4.396  -8.429  0.00  0.00    +0.000 A 
ATOM     19  C   UNL     1     -17.837   3.850  -7.142  0.00  0.00    +0.000 A 
ATOM     20  C   UNL     1     -17.047   2.767  -6.774  0.00  0.00    +0.003 A 
ENDBRANCH  14  15
ENDBRANCH  13  14
ENDBRANCH   3  13
TORSDOF 4
ENDMDL
MODEL 9
REMARK VINA RESULT:      -6.9     14.580     16.884
REMARK  Name = min_compound949.pdb
REMARK  5 active torsions:
REMARK  status: ('A' for Active; 'I' for Inactive)
REMARK    1  A    between atoms: _1  and  _18
REMARK    2  A    between atoms: _2  and  _17
REMARK    3  A    between atoms: _3  and  _19
REMARK    4  A    between atoms: _10  and  _16
REMARK    5  A    between atoms: _16  and  _17
REMARK                            x       y       z     vdW  Elec       q    Type
REMARK                         _______ _______ _______ _____ _____    ______ ____
ROOT
ATOM      1  C   UNL     1     -14.404  -4.683  -1.556  0.00  0.00    +0.049 A 
ATOM      2  C   UNL     1     -12.965  -4.374  -1.203  0.00  0.00    +0.066 C 
ATOM      3  C   UNL     1     -15.279  -3.578  -2.123  0.00  0.00    +0.035 A 
ATOM      4  C   UNL     1     -16.525  -3.976  -2.453  0.00  0.00    +0.220 A 
ATOM      5  N   UNL     1     -16.931  -5.297  -2.234  0.00  0.00    -0.182 N 
ATOM      6  N   UNL     1     -18.157  -5.825  -2.507  0.00  0.00    -0.170 NA
ATOM      7  C   UNL     1     -18.052  -7.094  -2.105  0.00  0.00    +0.137 A 
ATOM      8  C   UNL     1     -16.786  -7.400  -1.580  0.00  0.00    +0.069 A 
ATOM      9  C   UNL     1     -16.072  -6.229  -1.674  0.00  0.00    +0.159 A 
ATOM     10  N   UNL     1     -14.791  -5.912  -1.342  0.00  0.00    -0.232 NA
ENDROOT
BRANCH   4  11
ATOM     11  O   UNL     1     -17.450  -3.098  -3.006  0.00  0.00    -0.492 OA
ATOM     12  H   UNL     1     -17.226  -3.054  -3.963  0.00  0.00    +0.294 HD
ENDBRANCH   4  11
BRANCH   3  13
ATOM     13  C   UNL     1     -14.789  -2.161  -2.294  0.00  0.00    +0.047 C 
BRANCH  13  14
ATOM     14  C   UNL     1     -14.579  -1.745  -3.824  0.00  0.00    +0.040 C 
BRANCH  14  15
ATOM     15  C   UNL     1     -14.685   0.203  -3.285  0.00  0.00    -0.047 A 
ATOM     16  C   UNL     1     -13.470   0.894  -3.288  0.00  0.00    +0.003 A 
ATOM     17  C   UNL     1     -13.519   2.256  -3.564  0.00  0.00    +0.000 A 
ATOM     18  C   UNL     1     -14.743   2.875  -3.861  0.00  0.00    +0.000 A 
ATOM     19  C   UNL     1     -15.937   2.140  -3.885  0.00  0.00    +0.000 A 
ATOM     20  C   UNL     1     -15.919   0.776  -3.619  0.00  0.00    +0.003 A 
ENDBRANCH  14  15
ENDBRANCH  13  14
ENDBRANCH   3  13
TORSDOF 4
ENDMDL
