MODEL 1
REMARK VINA RESULT:      -7.4      0.000      0.000
REMARK  Name = min_compound943.pdb
REMARK  2 active torsions:
REMARK  status: ('A' for Active; 'I' for Inactive)
REMARK    1  A    between atoms: _1  and  _3
REMARK    2  A    between atoms: _1  and  _21
REMARK                            x       y       z     vdW  Elec       q    Type
REMARK                         _______ _______ _______ _____ _____    ______ ____
ROOT
ATOM      1  C   UNL     1     -15.451   7.402 -16.992  0.00  0.00    +0.216 A 
ATOM      2  N   UNL     1     -15.591   6.096 -16.698  0.00  0.00    -0.204 NA
ATOM      3  C   UNL     1     -14.522   5.285 -16.895  0.00  0.00    +0.128 A 
ATOM      4  S   UNL     1     -14.799   3.570 -16.487  0.00  0.00    -0.045 S 
ATOM      5  C   UNL     1     -13.206   2.831 -16.772  0.00  0.00    +0.144 A 
ATOM      6  N   UNL     1     -13.111   1.510 -16.473  0.00  0.00    -0.235 NA
ATOM      7  C   UNL     1     -11.918   0.924 -16.675  0.00  0.00    +0.091 A 
ATOM      8  C   UNL     1     -11.760  -0.424 -16.379  0.00  0.00    +0.030 A 
ATOM      9  C   UNL     1     -10.538  -1.072 -16.570  0.00  0.00    +0.002 A 
ATOM     10  C   UNL     1      -9.455  -0.358 -17.067  0.00  0.00    +0.002 A 
ATOM     11  C   UNL     1      -9.603   0.997 -17.367  0.00  0.00    +0.030 A 
ATOM     12  C   UNL     1     -10.814   1.653 -17.179  0.00  0.00    +0.091 A 
ATOM     13  N   UNL     1     -10.914   2.962 -17.479  0.00  0.00    -0.228 NA
ATOM     14  C   UNL     1     -12.113   3.551 -17.271  0.00  0.00    +0.156 A 
ATOM     15  N   UNL     1     -12.189   4.909 -17.573  0.00  0.00    -0.295 N 
ATOM     16  H   UNL     1     -11.313   5.288 -17.904  0.00  0.00    +0.154 HD
ATOM     17  C   UNL     1     -13.288   5.745 -17.380  0.00  0.00    +0.065 A 
ATOM     18  C   UNL     1     -13.182   7.108 -17.669  0.00  0.00    +0.031 A 
ATOM     19  C   UNL     1     -14.271   7.952 -17.463  0.00  0.00    +0.069 A 
ENDROOT
BRANCH   1  20
ATOM     20  O   UNL     1     -16.553   8.164 -16.712  0.00  0.00    -0.480 OA
ATOM     21  C   UNL     1     -16.235   9.364 -16.017  0.00  0.00    +0.279 C 
ENDBRANCH   1  20
TORSDOF 1
ENDMDL
MODEL 2
REMARK VINA RESULT:      -7.2      1.294      2.156
REMARK  Name = min_compound943.pdb
REMARK  2 active torsions:
REMARK  status: ('A' for Active; 'I' for Inactive)
REMARK    1  A    between atoms: _1  and  _3
REMARK    2  A    between atoms: _1  and  _21
REMARK                            x       y       z     vdW  Elec       q    Type
REMARK                         _______ _______ _______ _____ _____    ______ ____
ROOT
ATOM      1  C   UNL     1     -15.087   7.776 -17.294  0.00  0.00    +0.216 A 
ATOM      2  N   UNL     1     -13.836   7.324 -17.502  0.00  0.00    -0.204 NA
ATOM      3  C   UNL     1     -13.586   6.016 -17.244  0.00  0.00    +0.128 A 
ATOM      4  S   UNL     1     -11.901   5.506 -17.541  0.00  0.00    -0.045 S 
ATOM      5  C   UNL     1     -11.949   3.761 -17.196  0.00  0.00    +0.144 A 
ATOM      6  N   UNL     1     -10.787   3.091 -17.407  0.00  0.00    -0.235 NA
ATOM      7  C   UNL     1     -10.792   1.769 -17.159  0.00  0.00    +0.091 A 
ATOM      8  C   UNL     1      -9.634   1.030 -17.363  0.00  0.00    +0.030 A 
ATOM      9  C   UNL     1      -9.596  -0.344 -17.122  0.00  0.00    +0.002 A 
ATOM     10  C   UNL     1     -10.737  -0.991 -16.666  0.00  0.00    +0.002 A 
ATOM     11  C   UNL     1     -11.906  -0.258 -16.457  0.00  0.00    +0.030 A 
ATOM     12  C   UNL     1     -11.956   1.110 -16.696  0.00  0.00    +0.091 A 
ATOM     13  N   UNL     1     -13.106   1.780 -16.484  0.00  0.00    -0.228 NA
ATOM     14  C   UNL     1     -13.100   3.107 -16.738  0.00  0.00    +0.156 A 
ATOM     15  N   UNL     1     -14.303   3.776 -16.527  0.00  0.00    -0.295 N 
ATOM     16  H   UNL     1     -15.044   3.164 -16.216  0.00  0.00    +0.154 HD
ATOM     17  C   UNL     1     -14.565   5.122 -16.782  0.00  0.00    +0.065 A 
ATOM     18  C   UNL     1     -15.851   5.629 -16.583  0.00  0.00    +0.031 A 
ATOM     19  C   UNL     1     -16.122   6.969 -16.852  0.00  0.00    +0.069 A 
ENDROOT
BRANCH   1  20
ATOM     20  O   UNL     1     -15.275   9.088 -17.631  0.00  0.00    -0.480 OA
ATOM     21  C   UNL     1     -16.501   9.617 -17.139  0.00  0.00    +0.279 C 
ENDBRANCH   1  20
TORSDOF 1
ENDMDL
MODEL 3
REMARK VINA RESULT:      -6.6      1.987      3.043
REMARK  Name = min_compound943.pdb
REMARK  2 active torsions:
REMARK  status: ('A' for Active; 'I' for Inactive)
REMARK    1  A    between atoms: _1  and  _3
REMARK    2  A    between atoms: _1  and  _21
REMARK                            x       y       z     vdW  Elec       q    Type
REMARK                         _______ _______ _______ _____ _____    ______ ____
ROOT
ATOM      1  C   UNL     1     -17.589   5.412 -15.682  0.00  0.00    +0.216 A 
ATOM      2  N   UNL     1     -16.290   5.556 -16.004  0.00  0.00    -0.204 NA
ATOM      3  C   UNL     1     -15.521   4.439 -16.044  0.00  0.00    +0.128 A 
ATOM      4  S   UNL     1     -13.812   4.723 -16.472  0.00  0.00    -0.045 S 
ATOM      5  C   UNL     1     -13.136   3.078 -16.519  0.00  0.00    +0.144 A 
ATOM      6  N   UNL     1     -11.833   2.991 -16.890  0.00  0.00    -0.235 NA
ATOM      7  C   UNL     1     -11.293   1.761 -16.939  0.00  0.00    +0.091 A 
ATOM      8  C   UNL     1      -9.966   1.610 -17.319  0.00  0.00    +0.030 A 
ATOM      9  C   UNL     1      -9.368   0.350 -17.386  0.00  0.00    +0.002 A 
ATOM     10  C   UNL     1     -10.111  -0.779 -17.066  0.00  0.00    +0.002 A 
ATOM     11  C   UNL     1     -11.445  -0.638 -16.682  0.00  0.00    +0.030 A 
ATOM     12  C   UNL     1     -12.052   0.610 -16.613  0.00  0.00    +0.091 A 
ATOM     13  N   UNL     1     -13.343   0.701 -16.241  0.00  0.00    -0.228 NA
ATOM     14  C   UNL     1     -13.885   1.939 -16.198  0.00  0.00    +0.156 A 
ATOM     15  N   UNL     1     -15.225   2.008 -15.825  0.00  0.00    -0.295 N 
ATOM     16  H   UNL     1     -15.630   1.101 -15.645  0.00  0.00    +0.154 HD
ATOM     17  C   UNL     1     -16.018   3.154 -15.775  0.00  0.00    +0.065 A 
ATOM     18  C   UNL     1     -17.372   3.047 -15.449  0.00  0.00    +0.031 A 
ATOM     19  C   UNL     1     -18.173   4.186 -15.412  0.00  0.00    +0.069 A 
ENDROOT
BRANCH   1  20
ATOM     20  O   UNL     1     -18.310   6.574 -15.720  0.00  0.00    -0.480 OA
ATOM     21  C   UNL     1     -17.579   7.697 -15.242  0.00  0.00    +0.279 C 
ENDBRANCH   1  20
TORSDOF 1
ENDMDL
MODEL 4
REMARK VINA RESULT:      -6.6      1.989      2.122
REMARK  Name = min_compound943.pdb
REMARK  2 active torsions:
REMARK  status: ('A' for Active; 'I' for Inactive)
REMARK    1  A    between atoms: _1  and  _3
REMARK    2  A    between atoms: _1  and  _21
REMARK                            x       y       z     vdW  Elec       q    Type
REMARK                         _______ _______ _______ _____ _____    ______ ____
ROOT
ATOM      1  C   UNL     1     -15.800   6.545 -19.040  0.00  0.00    +0.216 A 
ATOM      2  N   UNL     1     -15.128   6.153 -17.942  0.00  0.00    -0.204 NA
ATOM      3  C   UNL     1     -14.438   4.986 -18.006  0.00  0.00    +0.128 A 
ATOM      4  S   UNL     1     -13.584   4.540 -16.503  0.00  0.00    -0.045 S 
ATOM      5  C   UNL     1     -12.734   3.045 -16.959  0.00  0.00    +0.144 A 
ATOM      6  N   UNL     1     -11.937   2.509 -15.999  0.00  0.00    -0.235 NA
ATOM      7  C   UNL     1     -11.279   1.380 -16.315  0.00  0.00    +0.091 A 
ATOM      8  C   UNL     1     -10.442   0.791 -15.375  0.00  0.00    +0.030 A 
ATOM      9  C   UNL     1      -9.737  -0.379 -15.662  0.00  0.00    +0.002 A 
ATOM     10  C   UNL     1      -9.872  -0.972 -16.911  0.00  0.00    +0.002 A 
ATOM     11  C   UNL     1     -10.710  -0.388 -17.862  0.00  0.00    +0.030 A 
ATOM     12  C   UNL     1     -11.415   0.778 -17.589  0.00  0.00    +0.091 A 
ATOM     13  N   UNL     1     -12.211   1.311 -18.536  0.00  0.00    -0.228 NA
ATOM     14  C   UNL     1     -12.869   2.448 -18.219  0.00  0.00    +0.156 A 
ATOM     15  N   UNL     1     -13.674   2.989 -19.219  0.00  0.00    -0.295 N 
ATOM     16  H   UNL     1     -13.650   2.455 -20.075  0.00  0.00    +0.154 HD
ATOM     17  C   UNL     1     -14.391   4.184 -19.156  0.00  0.00    +0.065 A 
ATOM     18  C   UNL     1     -15.098   4.628 -20.276  0.00  0.00    +0.031 A 
ATOM     19  C   UNL     1     -15.803   5.828 -20.225  0.00  0.00    +0.069 A 
ENDROOT
BRANCH   1  20
ATOM     20  O   UNL     1     -16.421   7.758 -18.917  0.00  0.00    -0.480 OA
ATOM     21  C   UNL     1     -15.773   8.622 -17.991  0.00  0.00    +0.279 C 
ENDBRANCH   1  20
TORSDOF 1
ENDMDL
MODEL 5
REMARK VINA RESULT:      -6.6      1.728      1.854
REMARK  Name = min_compound943.pdb
REMARK  2 active torsions:
REMARK  status: ('A' for Active; 'I' for Inactive)
REMARK    1  A    between atoms: _1  and  _3
REMARK    2  A    between atoms: _1  and  _21
REMARK                            x       y       z     vdW  Elec       q    Type
REMARK                         _______ _______ _______ _____ _____    ______ ____
ROOT
ATOM      1  C   UNL     1     -15.902   7.171 -18.754  0.00  0.00    +0.216 A 
ATOM      2  N   UNL     1     -15.622   5.925 -19.177  0.00  0.00    -0.204 NA
ATOM      3  C   UNL     1     -14.657   5.235 -18.518  0.00  0.00    +0.128 A 
ATOM      4  S   UNL     1     -14.348   3.595 -19.151  0.00  0.00    -0.045 S 
ATOM      5  C   UNL     1     -13.123   2.961 -18.027  0.00  0.00    +0.144 A 
ATOM      6  N   UNL     1     -12.741   1.676 -18.241  0.00  0.00    -0.235 NA
ATOM      7  C   UNL     1     -11.818   1.167 -17.407  0.00  0.00    +0.091 A 
ATOM      8  C   UNL     1     -11.395  -0.146 -17.572  0.00  0.00    +0.030 A 
ATOM      9  C   UNL     1     -10.442  -0.715 -16.726  0.00  0.00    +0.002 A 
ATOM     10  C   UNL     1      -9.901   0.043 -15.696  0.00  0.00    +0.002 A 
ATOM     11  C   UNL     1     -10.319   1.363 -15.521  0.00  0.00    +0.030 A 
ATOM     12  C   UNL     1     -11.268   1.940 -16.355  0.00  0.00    +0.091 A 
ATOM     13  N   UNL     1     -11.646   3.216 -16.149  0.00  0.00    -0.228 NA
ATOM     14  C   UNL     1     -12.578   3.725 -16.987  0.00  0.00    +0.156 A 
ATOM     15  N   UNL     1     -12.964   5.041 -16.746  0.00  0.00    -0.295 N 
ATOM     16  H   UNL     1     -12.496   5.449 -15.949  0.00  0.00    +0.154 HD
ATOM     17  C   UNL     1     -13.950   5.758 -17.424  0.00  0.00    +0.065 A 
ATOM     18  C   UNL     1     -14.273   7.053 -17.014  0.00  0.00    +0.031 A 
ATOM     19  C   UNL     1     -15.267   7.768 -17.677  0.00  0.00    +0.069 A 
ENDROOT
BRANCH   1  20
ATOM     20  O   UNL     1     -16.924   7.780 -19.429  0.00  0.00    -0.480 OA
ATOM     21  C   UNL     1     -18.154   7.072 -19.327  0.00  0.00    +0.279 C 
ENDBRANCH   1  20
TORSDOF 1
ENDMDL
MODEL 6
REMARK VINA RESULT:      -6.5     13.741     14.870
REMARK  Name = min_compound943.pdb
REMARK  2 active torsions:
REMARK  status: ('A' for Active; 'I' for Inactive)
REMARK    1  A    between atoms: _1  and  _3
REMARK    2  A    between atoms: _1  and  _21
REMARK                            x       y       z     vdW  Elec       q    Type
REMARK                         _______ _______ _______ _____ _____    ______ ____
ROOT
ATOM      1  C   UNL     1     -16.105   1.534  -6.597  0.00  0.00    +0.216 A 
ATOM      2  N   UNL     1     -16.580   1.189  -5.385  0.00  0.00    -0.204 NA
ATOM      3  C   UNL     1     -16.051   0.091  -4.789  0.00  0.00    +0.128 A 
ATOM      4  S   UNL     1     -16.744  -0.296  -3.190  0.00  0.00    -0.045 S 
ATOM      5  C   UNL     1     -15.784  -1.701  -2.671  0.00  0.00    +0.144 A 
ATOM      6  N   UNL     1     -16.063  -2.175  -1.430  0.00  0.00    -0.235 NA
ATOM      7  C   UNL     1     -15.352  -3.234  -1.008  0.00  0.00    +0.091 A 
ATOM      8  C   UNL     1     -15.589  -3.758   0.256  0.00  0.00    +0.030 A 
ATOM      9  C   UNL     1     -14.871  -4.855   0.736  0.00  0.00    +0.002 A 
ATOM     10  C   UNL     1     -13.898  -5.439  -0.065  0.00  0.00    +0.002 A 
ATOM     11  C   UNL     1     -13.651  -4.921  -1.337  0.00  0.00    +0.030 A 
ATOM     12  C   UNL     1     -14.359  -3.829  -1.824  0.00  0.00    +0.091 A 
ATOM     13  N   UNL     1     -14.087  -3.357  -3.057  0.00  0.00    -0.228 NA
ATOM     14  C   UNL     1     -14.801  -2.289  -3.478  0.00  0.00    +0.156 A 
ATOM     15  N   UNL     1     -14.493  -1.810  -4.749  0.00  0.00    -0.295 N 
ATOM     16  H   UNL     1     -13.750  -2.328  -5.195  0.00  0.00    +0.154 HD
ATOM     17  C   UNL     1     -15.038  -0.687  -5.370  0.00  0.00    +0.065 A 
ATOM     18  C   UNL     1     -14.570  -0.293  -6.626  0.00  0.00    +0.031 A 
ATOM     19  C   UNL     1     -15.100   0.837  -7.246  0.00  0.00    +0.069 A 
ENDROOT
BRANCH   1  20
ATOM     20  O   UNL     1     -16.645   2.683  -7.107  0.00  0.00    -0.480 OA
ATOM     21  C   UNL     1     -16.498   2.786  -8.518  0.00  0.00    +0.279 C 
ENDBRANCH   1  20
TORSDOF 1
ENDMDL
MODEL 7
REMARK VINA RESULT:      -6.4      9.531     10.173
REMARK  Name = min_compound943.pdb
REMARK  2 active torsions:
REMARK  status: ('A' for Active; 'I' for Inactive)
REMARK    1  A    between atoms: _1  and  _3
REMARK    2  A    between atoms: _1  and  _21
REMARK                            x       y       z     vdW  Elec       q    Type
REMARK                         _______ _______ _______ _____ _____    ______ ____
ROOT
ATOM      1  C   UNL     1     -17.471   6.337 -10.345  0.00  0.00    +0.216 A 
ATOM      2  N   UNL     1     -17.806   5.857  -9.133  0.00  0.00    -0.204 NA
ATOM      3  C   UNL     1     -17.218   4.704  -8.725  0.00  0.00    +0.128 A 
ATOM      4  S   UNL     1     -17.726   4.138  -7.110  0.00  0.00    -0.045 S 
ATOM      5  C   UNL     1     -16.720   2.692  -6.863  0.00  0.00    +0.144 A 
ATOM      6  N   UNL     1     -16.858   2.081  -5.658  0.00  0.00    -0.235 NA
ATOM      7  C   UNL     1     -16.108   0.987  -5.439  0.00  0.00    +0.091 A 
ATOM      8  C   UNL     1     -16.202   0.326  -4.222  0.00  0.00    +0.030 A 
ATOM      9  C   UNL     1     -15.439  -0.812  -3.952  0.00  0.00    +0.002 A 
ATOM     10  C   UNL     1     -14.567  -1.297  -4.918  0.00  0.00    +0.002 A 
ATOM     11  C   UNL     1     -14.465  -0.639  -6.144  0.00  0.00    +0.030 A 
ATOM     12  C   UNL     1     -15.218   0.495  -6.424  0.00  0.00    +0.091 A 
ATOM     13  N   UNL     1     -15.087   1.101  -7.620  0.00  0.00    -0.228 NA
ATOM     14  C   UNL     1     -15.838   2.204  -7.836  0.00  0.00    +0.156 A 
ATOM     15  N   UNL     1     -15.675   2.822  -9.073  0.00  0.00    -0.295 N 
ATOM     16  H   UNL     1     -14.990   2.363  -9.656  0.00  0.00    +0.154 HD
ATOM     17  C   UNL     1     -16.282   4.003  -9.501  0.00  0.00    +0.065 A 
ATOM     18  C   UNL     1     -15.959   4.536 -10.750  0.00  0.00    +0.031 A 
ATOM     19  C   UNL     1     -16.550   5.723 -11.177  0.00  0.00    +0.069 A 
ENDROOT
BRANCH   1  20
ATOM     20  O   UNL     1     -18.060   7.532 -10.660  0.00  0.00    -0.480 OA
ATOM     21  C   UNL     1     -19.033   7.939  -9.706  0.00  0.00    +0.279 C 
ENDBRANCH   1  20
TORSDOF 1
ENDMDL
MODEL 8
REMARK VINA RESULT:      -6.4      2.640      7.179
REMARK  Name = min_compound943.pdb
REMARK  2 active torsions:
REMARK  status: ('A' for Active; 'I' for Inactive)
REMARK    1  A    between atoms: _1  and  _3
REMARK    2  A    between atoms: _1  and  _21
REMARK                            x       y       z     vdW  Elec       q    Type
REMARK                         _______ _______ _______ _____ _____    ______ ____
ROOT
ATOM      1  C   UNL     1     -10.951   0.585 -16.840  0.00  0.00    +0.216 A 
ATOM      2  N   UNL     1     -12.227   0.927 -16.583  0.00  0.00    -0.204 NA
ATOM      3  C   UNL     1     -12.565   2.236 -16.697  0.00  0.00    +0.128 A 
ATOM      4  S   UNL     1     -14.274   2.599 -16.331  0.00  0.00    -0.045 S 
ATOM      5  C   UNL     1     -14.387   4.344 -16.658  0.00  0.00    +0.144 A 
ATOM      6  N   UNL     1     -15.624   4.887 -16.518  0.00  0.00    -0.235 NA
ATOM      7  C   UNL     1     -15.743   6.204 -16.762  0.00  0.00    +0.091 A 
ATOM      8  C   UNL     1     -16.985   6.813 -16.642  0.00  0.00    +0.030 A 
ATOM      9  C   UNL     1     -17.154   8.176 -16.890  0.00  0.00    +0.002 A 
ATOM     10  C   UNL     1     -16.059   8.945 -17.263  0.00  0.00    +0.002 A 
ATOM     11  C   UNL     1     -14.806   8.343 -17.387  0.00  0.00    +0.030 A 
ATOM     12  C   UNL     1     -14.626   6.987 -17.145  0.00  0.00    +0.091 A 
ATOM     13  N   UNL     1     -13.400   6.445 -17.278  0.00  0.00    -0.228 NA
ATOM     14  C   UNL     1     -13.284   5.120 -17.037  0.00  0.00    +0.156 A 
ATOM     15  N   UNL     1     -12.010   4.579 -17.196  0.00  0.00    -0.295 N 
ATOM     16  H   UNL     1     -11.327   5.261 -17.491  0.00  0.00    +0.154 HD
ATOM     17  C   UNL     1     -11.655   3.236 -17.073  0.00  0.00    +0.065 A 
ATOM     18  C   UNL     1     -10.341   2.839 -17.335  0.00  0.00    +0.031 A 
ATOM     19  C   UNL     1      -9.983   1.497 -17.229  0.00  0.00    +0.069 A 
ENDROOT
BRANCH   1  20
ATOM     20  O   UNL     1     -10.700  -0.758 -16.761  0.00  0.00    -0.480 OA
ATOM     21  C   UNL     1      -9.656  -1.075 -15.849  0.00  0.00    +0.279 C 
ENDBRANCH   1  20
TORSDOF 1
ENDMDL
MODEL 9
REMARK VINA RESULT:      -6.3     14.566     15.554
REMARK  Name = min_compound943.pdb
REMARK  2 active torsions:
REMARK  status: ('A' for Active; 'I' for Inactive)
REMARK    1  A    between atoms: _1  and  _3
REMARK    2  A    between atoms: _1  and  _21
REMARK                            x       y       z     vdW  Elec       q    Type
REMARK                         _______ _______ _______ _____ _____    ______ ____
ROOT
ATOM      1  C   UNL     1     -15.887   2.533  -3.964  0.00  0.00    +0.216 A 
ATOM      2  N   UNL     1     -16.679   1.454  -3.822  0.00  0.00    -0.204 NA
ATOM      3  C   UNL     1     -16.094   0.283  -3.469  0.00  0.00    +0.128 A 
ATOM      4  S   UNL     1     -17.218  -1.095  -3.310  0.00  0.00    -0.045 S 
ATOM      5  C   UNL     1     -16.156  -2.413  -2.763  0.00  0.00    +0.144 A 
ATOM      6  N   UNL     1     -16.774  -3.592  -2.497  0.00  0.00    -0.235 NA
ATOM      7  C   UNL     1     -15.998  -4.606  -2.078  0.00  0.00    +0.091 A 
ATOM      8  C   UNL     1     -16.577  -5.834  -1.783  0.00  0.00    +0.030 A 
ATOM      9  C   UNL     1     -15.809  -6.913  -1.342  0.00  0.00    +0.002 A 
ATOM     10  C   UNL     1     -14.436  -6.761  -1.194  0.00  0.00    +0.002 A 
ATOM     11  C   UNL     1     -13.845  -5.532  -1.488  0.00  0.00    +0.030 A 
ATOM     12  C   UNL     1     -14.599  -4.451  -1.926  0.00  0.00    +0.091 A 
ATOM     13  N   UNL     1     -13.988  -3.281  -2.195  0.00  0.00    -0.228 NA
ATOM     14  C   UNL     1     -14.771  -2.260  -2.612  0.00  0.00    +0.156 A 
ATOM     15  N   UNL     1     -14.121  -1.056  -2.870  0.00  0.00    -0.295 N 
ATOM     16  H   UNL     1     -13.127  -1.100  -2.696  0.00  0.00    +0.154 HD
ATOM     17  C   UNL     1     -14.716   0.150  -3.241  0.00  0.00    +0.065 A 
ATOM     18  C   UNL     1     -13.929   1.293  -3.395  0.00  0.00    +0.031 A 
ATOM     19  C   UNL     1     -14.519   2.504  -3.749  0.00  0.00    +0.069 A 
ENDROOT
BRANCH   1  20
ATOM     20  O   UNL     1     -16.556   3.689  -4.263  0.00  0.00    -0.480 OA
ATOM     21  C   UNL     1     -17.785   3.817  -3.557  0.00  0.00    +0.279 C 
ENDBRANCH   1  20
TORSDOF 1
ENDMDL
