MODEL 1
REMARK VINA RESULT:      -7.3      0.000      0.000
REMARK  Name = min_compound969.pdb
REMARK  5 active torsions:
REMARK  status: ('A' for Active; 'I' for Inactive)
REMARK    1  A    between atoms: _2  and  _5
REMARK    2  A    between atoms: _10  and  _16
REMARK    3  A    between atoms: _12  and  _17
REMARK    4  A    between atoms: _14  and  _17
REMARK    5  A    between atoms: _15  and  _19
REMARK                            x       y       z     vdW  Elec       q    Type
REMARK                         _______ _______ _______ _____ _____    ______ ____
ROOT
ATOM      1  N   UNL     1     -14.631  -3.068  -3.118  0.00  0.00    -0.284 N 
ATOM      2  H   UNL     1     -14.255  -3.461  -3.975  0.00  0.00    +0.155 HD
ATOM      3  C   UNL     1     -14.269  -3.648  -1.924  0.00  0.00    +0.229 C 
ATOM      4  O   UNL     1     -14.378  -2.957  -0.893  0.00  0.00    -0.275 OA
ENDROOT
BRANCH   1   7
ATOM      5  C   UNL     1     -14.915   0.800  -3.509  0.00  0.00    +0.057 A 
ATOM      6  C   UNL     1     -14.379  -0.530  -3.358  0.00  0.00    +0.037 A 
ATOM      7  C   UNL     1     -15.172  -1.712  -3.227  0.00  0.00    +0.052 A 
ATOM      8  C   UNL     1     -16.559  -1.525  -3.210  0.00  0.00    +0.062 A 
ATOM      9 CL   UNL     1     -17.635  -2.873  -3.052  0.00  0.00    -0.082 Cl
ATOM     10  C   UNL     1     -17.118  -0.243  -3.353  0.00  0.00    +0.022 A 
ATOM     11  C   UNL     1     -16.311   0.901  -3.498  0.00  0.00    +0.014 A 
BRANCH   5  13
ATOM     12  F   UNL     1     -12.914   1.182  -2.898  0.00  0.00    -0.166 F 
ATOM     13  C   UNL     1     -13.945   1.944  -3.532  0.00  0.00    +0.417 C 
ATOM     14  F   UNL     1     -13.687   1.771  -4.926  0.00  0.00    -0.166 F 
ATOM     15  F   UNL     1     -12.975   3.088  -3.555  0.00  0.00    -0.166 F 
ENDBRANCH   5  13
ENDBRANCH   1   7
BRANCH   3  16
ATOM     16  C   UNL     1     -13.575  -4.972  -1.807  0.00  0.00    +0.224 C 
BRANCH  16  17
ATOM     17  C   UNL     1     -12.645  -4.673  -0.562  0.00  0.00    +0.282 C 
ATOM     18  N   UNL     1     -11.673  -3.699  -0.682  0.00  0.00    -0.288 N 
ATOM     19  H   UNL     1     -12.068  -2.834  -1.053  0.00  0.00    +0.301 HD
ATOM     20  H   UNL     1     -11.277  -3.528   0.240  0.00  0.00    +0.301 HD
ATOM     21  N   UNL     1     -12.811  -5.399   0.505  0.00  0.00    -0.136 N 
ATOM     22  H   UNL     1     -13.482  -6.113   0.601  0.00  0.00    +0.348 HD
BRANCH  21  23
ATOM     23  O   UNL     1     -11.896  -5.016   1.501  0.00  0.00    -0.210 OA
ATOM     24  H   UNL     1     -12.151  -5.590   2.248  0.00  0.00    +0.271 HD
ENDBRANCH  21  23
ENDBRANCH  16  17
ENDBRANCH   3  16
TORSDOF 5
ENDMDL
MODEL 2
REMARK VINA RESULT:      -6.9      6.318      8.502
REMARK  Name = min_compound969.pdb
REMARK  5 active torsions:
REMARK  status: ('A' for Active; 'I' for Inactive)
REMARK    1  A    between atoms: _2  and  _5
REMARK    2  A    between atoms: _10  and  _16
REMARK    3  A    between atoms: _12  and  _17
REMARK    4  A    between atoms: _14  and  _17
REMARK    5  A    between atoms: _15  and  _19
REMARK                            x       y       z     vdW  Elec       q    Type
REMARK                         _______ _______ _______ _____ _____    ______ ____
ROOT
ATOM      1  N   UNL     1     -17.113   1.606  -7.779  0.00  0.00    -0.284 N 
ATOM      2  H   UNL     1     -18.051   1.625  -7.393  0.00  0.00    +0.155 HD
ATOM      3  C   UNL     1     -16.825   2.450  -8.827  0.00  0.00    +0.229 C 
ATOM      4  O   UNL     1     -15.627   2.730  -9.028  0.00  0.00    -0.275 OA
ENDROOT
BRANCH   1   7
ATOM      5  C   UNL     1     -14.393   1.071  -5.040  0.00  0.00    +0.057 A 
ATOM      6  C   UNL     1     -15.369   1.685  -5.905  0.00  0.00    +0.037 A 
ATOM      7  C   UNL     1     -16.090   0.995  -6.928  0.00  0.00    +0.052 A 
ATOM      8  C   UNL     1     -15.775  -0.358  -7.101  0.00  0.00    +0.062 A 
ATOM      9 CL   UNL     1     -16.573  -1.308  -8.308  0.00  0.00    -0.082 Cl
ATOM     10  C   UNL     1     -14.828  -0.991  -6.276  0.00  0.00    +0.022 A 
ATOM     11  C   UNL     1     -14.146  -0.289  -5.264  0.00  0.00    +0.014 A 
BRANCH   5  13
ATOM     12  F   UNL     1     -14.855   2.442  -3.482  0.00  0.00    -0.166 F 
ATOM     13  C   UNL     1     -13.652   1.958  -4.084  0.00  0.00    +0.417 C 
ATOM     14  F   UNL     1     -13.279   0.853  -3.258  0.00  0.00    -0.166 F 
ATOM     15  F   UNL     1     -12.911   2.845  -3.128  0.00  0.00    -0.166 F 
ENDBRANCH   5  13
ENDBRANCH   1   7
BRANCH   3  16
ATOM     16  C   UNL     1     -17.858   3.203  -9.611  0.00  0.00    +0.224 C 
BRANCH  16  17
ATOM     17  C   UNL     1     -17.166   4.624  -9.664  0.00  0.00    +0.282 C 
ATOM     18  N   UNL     1     -16.719   5.098 -10.881  0.00  0.00    -0.288 N 
ATOM     19  H   UNL     1     -17.450   5.027 -11.590  0.00  0.00    +0.301 HD
ATOM     20  H   UNL     1     -16.446   6.072 -10.766  0.00  0.00    +0.301 HD
ATOM     21  N   UNL     1     -17.006   5.261  -8.540  0.00  0.00    -0.136 N 
ATOM     22  H   UNL     1     -17.296   4.929  -7.659  0.00  0.00    +0.348 HD
BRANCH  21  23
ATOM     23  O   UNL     1     -16.361   6.489  -8.764  0.00  0.00    -0.210 OA
ATOM     24  H   UNL     1     -16.324   6.870  -7.866  0.00  0.00    +0.271 HD
ENDBRANCH  21  23
ENDBRANCH  16  17
ENDBRANCH   3  16
TORSDOF 5
ENDMDL
MODEL 3
REMARK VINA RESULT:      -6.8      3.366      4.094
REMARK  Name = min_compound969.pdb
REMARK  5 active torsions:
REMARK  status: ('A' for Active; 'I' for Inactive)
REMARK    1  A    between atoms: _2  and  _5
REMARK    2  A    between atoms: _10  and  _16
REMARK    3  A    between atoms: _12  and  _17
REMARK    4  A    between atoms: _14  and  _17
REMARK    5  A    between atoms: _15  and  _19
REMARK                            x       y       z     vdW  Elec       q    Type
REMARK                         _______ _______ _______ _____ _____    ______ ____
ROOT
ATOM      1  N   UNL     1     -15.120  -0.891  -2.971  0.00  0.00    -0.284 N 
ATOM      2  H   UNL     1     -15.773  -0.410  -2.360  0.00  0.00    +0.155 HD
ATOM      3  C   UNL     1     -14.747  -2.174  -2.640  0.00  0.00    +0.229 C 
ATOM      4  O   UNL     1     -14.299  -2.895  -3.552  0.00  0.00    -0.275 OA
ENDROOT
BRANCH   1   7
ATOM      5  C   UNL     1     -15.571  -0.207  -6.781  0.00  0.00    +0.057 A 
ATOM      6  C   UNL     1     -15.682  -0.791  -5.467  0.00  0.00    +0.037 A 
ATOM      7  C   UNL     1     -14.976  -0.327  -4.314  0.00  0.00    +0.052 A 
ATOM      8  C   UNL     1     -14.098   0.744  -4.517  0.00  0.00    +0.062 A 
ATOM      9 CL   UNL     1     -13.179   1.399  -3.204  0.00  0.00    -0.082 Cl
ATOM     10  C   UNL     1     -13.963   1.338  -5.783  0.00  0.00    +0.022 A 
ATOM     11  C   UNL     1     -14.685   0.871  -6.898  0.00  0.00    +0.014 A 
BRANCH   5  13
ATOM     12  F   UNL     1     -17.479  -1.081  -7.120  0.00  0.00    -0.166 F 
ATOM     13  C   UNL     1     -16.303  -0.877  -7.906  0.00  0.00    +0.417 C 
ATOM     14  F   UNL     1     -16.546   0.367  -8.564  0.00  0.00    -0.166 F 
ATOM     15  F   UNL     1     -17.034  -1.546  -9.031  0.00  0.00    -0.166 F 
ENDBRANCH   5  13
ENDBRANCH   1   7
BRANCH   3  16
ATOM     16  C   UNL     1     -15.024  -2.817  -1.314  0.00  0.00    +0.224 C 
BRANCH  16  17
ATOM     17  C   UNL     1     -13.664  -3.599  -1.111  0.00  0.00    +0.282 C 
ATOM     18  N   UNL     1     -13.692  -4.979  -1.086  0.00  0.00    -0.288 N 
ATOM     19  H   UNL     1     -14.202  -5.347  -1.890  0.00  0.00    +0.301 HD
ATOM     20  H   UNL     1     -12.732  -5.319  -1.105  0.00  0.00    +0.301 HD
ATOM     21  N   UNL     1     -12.584  -2.895  -0.926  0.00  0.00    -0.136 N 
ATOM     22  H   UNL     1     -12.548  -1.912  -0.916  0.00  0.00    +0.348 HD
BRANCH  21  23
ATOM     23  O   UNL     1     -11.477  -3.743  -0.744  0.00  0.00    -0.210 OA
ATOM     24  H   UNL     1     -10.761  -3.108  -0.555  0.00  0.00    +0.271 HD
ENDBRANCH  21  23
ENDBRANCH  16  17
ENDBRANCH   3  16
TORSDOF 5
ENDMDL
MODEL 4
REMARK VINA RESULT:      -6.5     15.783     17.502
REMARK  Name = min_compound969.pdb
REMARK  5 active torsions:
REMARK  status: ('A' for Active; 'I' for Inactive)
REMARK    1  A    between atoms: _2  and  _5
REMARK    2  A    between atoms: _10  and  _16
REMARK    3  A    between atoms: _12  and  _17
REMARK    4  A    between atoms: _14  and  _17
REMARK    5  A    between atoms: _15  and  _19
REMARK                            x       y       z     vdW  Elec       q    Type
REMARK                         _______ _______ _______ _____ _____    ______ ____
ROOT
ATOM      1  N   UNL     1     -12.950   3.746 -19.049  0.00  0.00    -0.284 N 
ATOM      2  H   UNL     1     -12.472   3.862 -19.937  0.00  0.00    +0.155 HD
ATOM      3  C   UNL     1     -14.307   3.516 -19.069  0.00  0.00    +0.229 C 
ATOM      4  O   UNL     1     -14.814   2.980 -18.065  0.00  0.00    -0.275 OA
ENDROOT
BRANCH   1   7
ATOM      5  C   UNL     1     -10.779   1.822 -16.447  0.00  0.00    +0.057 A 
ATOM      6  C   UNL     1     -11.657   2.120 -17.551  0.00  0.00    +0.037 A 
ATOM      7  C   UNL     1     -12.094   3.435 -17.903  0.00  0.00    +0.052 A 
ATOM      8  C   UNL     1     -11.652   4.475 -17.078  0.00  0.00    +0.062 A 
ATOM      9 CL   UNL     1     -12.112   6.114 -17.391  0.00  0.00    -0.082 Cl
ATOM     10  C   UNL     1     -10.795   4.222 -15.992  0.00  0.00    +0.022 A 
ATOM     11  C   UNL     1     -10.367   2.917 -15.679  0.00  0.00    +0.014 A 
BRANCH   5  13
ATOM     12  F   UNL     1      -9.321   0.362 -16.965  0.00  0.00    -0.166 F 
ATOM     13  C   UNL     1     -10.497   0.378 -16.151  0.00  0.00    +0.417 C 
ATOM     14  F   UNL     1     -10.004   0.683 -14.846  0.00  0.00    -0.166 F 
ATOM     15  F   UNL     1     -10.215  -1.065 -15.855  0.00  0.00    -0.166 F 
ENDBRANCH   5  13
ENDBRANCH   1   7
BRANCH   3  16
ATOM     16  C   UNL     1     -15.173   3.685 -20.282  0.00  0.00    +0.224 C 
BRANCH  16  17
ATOM     17  C   UNL     1     -14.380   2.771 -21.301  0.00  0.00    +0.282 C 
ATOM     18  N   UNL     1     -13.989   3.311 -22.509  0.00  0.00    -0.288 N 
ATOM     19  H   UNL     1     -13.505   4.200 -22.371  0.00  0.00    +0.301 HD
ATOM     20  H   UNL     1     -13.367   2.650 -22.970  0.00  0.00    +0.301 HD
ATOM     21  N   UNL     1     -14.178   1.529 -20.967  0.00  0.00    -0.136 N 
ATOM     22  H   UNL     1     -14.470   1.118 -20.121  0.00  0.00    +0.348 HD
BRANCH  21  23
ATOM     23  O   UNL     1     -13.481   0.858 -21.988  0.00  0.00    -0.210 OA
ATOM     24  H   UNL     1     -13.386   1.555 -22.664  0.00  0.00    +0.271 HD
ENDBRANCH  21  23
ENDBRANCH  16  17
ENDBRANCH   3  16
TORSDOF 5
ENDMDL
MODEL 5
REMARK VINA RESULT:      -6.5     14.524     15.825
REMARK  Name = min_compound969.pdb
REMARK  5 active torsions:
REMARK  status: ('A' for Active; 'I' for Inactive)
REMARK    1  A    between atoms: _2  and  _5
REMARK    2  A    between atoms: _10  and  _16
REMARK    3  A    between atoms: _12  and  _17
REMARK    4  A    between atoms: _14  and  _17
REMARK    5  A    between atoms: _15  and  _19
REMARK                            x       y       z     vdW  Elec       q    Type
REMARK                         _______ _______ _______ _____ _____    ______ ____
ROOT
ATOM      1  N   UNL     1     -14.129   4.297 -16.609  0.00  0.00    -0.284 N 
ATOM      2  H   UNL     1     -14.685   4.344 -17.457  0.00  0.00    +0.155 HD
ATOM      3  C   UNL     1     -14.749   4.571 -15.410  0.00  0.00    +0.229 C 
ATOM      4  O   UNL     1     -14.215   4.131 -14.374  0.00  0.00    -0.275 OA
ENDROOT
BRANCH   1   7
ATOM      5  C   UNL     1     -11.495   1.425 -16.674  0.00  0.00    +0.057 A 
ATOM      6  C   UNL     1     -12.731   2.153 -16.524  0.00  0.00    +0.037 A 
ATOM      7  C   UNL     1     -12.867   3.562 -16.717  0.00  0.00    +0.052 A 
ATOM      8  C   UNL     1     -11.695   4.259 -17.035  0.00  0.00    +0.062 A 
ATOM      9 CL   UNL     1     -11.721   5.971 -17.290  0.00  0.00    -0.082 Cl
ATOM     10  C   UNL     1     -10.472   3.583 -17.188  0.00  0.00    +0.022 A 
ATOM     11  C   UNL     1     -10.372   2.190 -17.008  0.00  0.00    +0.014 A 
BRANCH   5  13
ATOM     12  F   UNL     1     -11.044  -0.416 -17.637  0.00  0.00    -0.166 F 
ATOM     13  C   UNL     1     -11.502  -0.036 -16.337  0.00  0.00    +0.417 C 
ATOM     14  F   UNL     1     -10.300   0.076 -15.573  0.00  0.00    -0.166 F 
ATOM     15  F   UNL     1     -11.508  -1.498 -15.999  0.00  0.00    -0.166 F 
ENDBRANCH   5  13
ENDBRANCH   1   7
BRANCH   3  16
ATOM     16  C   UNL     1     -16.111   5.186 -15.288  0.00  0.00    +0.224 C 
BRANCH  16  17
ATOM     17  C   UNL     1     -15.769   6.392 -14.322  0.00  0.00    +0.282 C 
ATOM     18  N   UNL     1     -15.849   6.191 -12.959  0.00  0.00    -0.288 N 
ATOM     19  H   UNL     1     -15.336   5.352 -12.684  0.00  0.00    +0.301 HD
ATOM     20  H   UNL     1     -15.453   7.004 -12.491  0.00  0.00    +0.301 HD
ATOM     21  N   UNL     1     -15.474   7.537 -14.866  0.00  0.00    -0.136 N 
ATOM     22  H   UNL     1     -15.436   7.707 -15.835  0.00  0.00    +0.348 HD
BRANCH  21  23
ATOM     23  O   UNL     1     -15.219   8.497 -13.871  0.00  0.00    -0.210 OA
ATOM     24  H   UNL     1     -14.250   8.442 -13.776  0.00  0.00    +0.271 HD
ENDBRANCH  21  23
ENDBRANCH  16  17
ENDBRANCH   3  16
TORSDOF 5
ENDMDL
MODEL 6
REMARK VINA RESULT:      -6.3     13.238     14.880
REMARK  Name = min_compound969.pdb
REMARK  5 active torsions:
REMARK  status: ('A' for Active; 'I' for Inactive)
REMARK    1  A    between atoms: _2  and  _5
REMARK    2  A    between atoms: _10  and  _16
REMARK    3  A    between atoms: _12  and  _17
REMARK    4  A    between atoms: _14  and  _17
REMARK    5  A    between atoms: _15  and  _19
REMARK                            x       y       z     vdW  Elec       q    Type
REMARK                         _______ _______ _______ _____ _____    ______ ____
ROOT
ATOM      1  N   UNL     1     -14.659   2.749 -16.566  0.00  0.00    -0.284 N 
ATOM      2  H   UNL     1     -15.142   2.207 -17.275  0.00  0.00    +0.155 HD
ATOM      3  C   UNL     1     -15.370   3.147 -15.456  0.00  0.00    +0.229 C 
ATOM      4  O   UNL     1     -14.723   3.436 -14.431  0.00  0.00    -0.275 OA
ENDROOT
BRANCH   1   7
ATOM      5  C   UNL     1     -10.987   1.448 -16.464  0.00  0.00    +0.057 A 
ATOM      6  C   UNL     1     -12.424   1.512 -16.377  0.00  0.00    +0.037 A 
ATOM      7  C   UNL     1     -13.197   2.691 -16.611  0.00  0.00    +0.052 A 
ATOM      8  C   UNL     1     -12.475   3.854 -16.905  0.00  0.00    +0.062 A 
ATOM      9 CL   UNL     1     -13.289   5.352 -17.205  0.00  0.00    -0.082 Cl
ATOM     10  C   UNL     1     -11.072   3.830 -16.998  0.00  0.00    +0.022 A 
ATOM     11  C   UNL     1     -10.339   2.648 -16.779  0.00  0.00    +0.014 A 
BRANCH   5  13
ATOM     12  F   UNL     1      -9.186   0.413 -16.919  0.00  0.00    -0.166 F 
ATOM     13  C   UNL     1     -10.322   0.156 -16.090  0.00  0.00    +0.417 C 
ATOM     14  F   UNL     1      -9.932   0.661 -14.812  0.00  0.00    -0.166 F 
ATOM     15  F   UNL     1      -9.658  -1.135 -15.715  0.00  0.00    -0.166 F 
ENDBRANCH   5  13
ENDBRANCH   1   7
BRANCH   3  16
ATOM     16  C   UNL     1     -16.863   3.069 -15.340  0.00  0.00    +0.224 C 
BRANCH  16  17
ATOM     17  C   UNL     1     -17.037   3.555 -13.845  0.00  0.00    +0.282 C 
ATOM     18  N   UNL     1     -17.085   4.912 -13.592  0.00  0.00    -0.288 N 
ATOM     19  H   UNL     1     -17.762   5.372 -14.201  0.00  0.00    +0.301 HD
ATOM     20  H   UNL     1     -17.352   5.047 -12.619  0.00  0.00    +0.301 HD
ATOM     21  N   UNL     1     -17.077   2.646 -12.914  0.00  0.00    -0.136 N 
ATOM     22  H   UNL     1     -17.020   1.676 -13.072  0.00  0.00    +0.348 HD
BRANCH  21  23
ATOM     23  O   UNL     1     -17.213   3.249 -11.651  0.00  0.00    -0.210 OA
ATOM     24  H   UNL     1     -18.128   3.012 -11.407  0.00  0.00    +0.271 HD
ENDBRANCH  21  23
ENDBRANCH  16  17
ENDBRANCH   3  16
TORSDOF 5
ENDMDL
MODEL 7
REMARK VINA RESULT:      -6.2      6.518      7.957
REMARK  Name = min_compound969.pdb
REMARK  5 active torsions:
REMARK  status: ('A' for Active; 'I' for Inactive)
REMARK    1  A    between atoms: _2  and  _5
REMARK    2  A    between atoms: _10  and  _16
REMARK    3  A    between atoms: _12  and  _17
REMARK    4  A    between atoms: _14  and  _17
REMARK    5  A    between atoms: _15  and  _19
REMARK                            x       y       z     vdW  Elec       q    Type
REMARK                         _______ _______ _______ _____ _____    ______ ____
ROOT
ATOM      1  N   UNL     1     -17.303   1.557  -8.525  0.00  0.00    -0.284 N 
ATOM      2  H   UNL     1     -18.072   1.143  -9.041  0.00  0.00    +0.155 HD
ATOM      3  C   UNL     1     -16.393   0.713  -7.929  0.00  0.00    +0.229 C 
ATOM      4  O   UNL     1     -15.268   1.177  -7.661  0.00  0.00    -0.275 OA
ENDROOT
BRANCH   1   7
ATOM      5  C   UNL     1     -16.256   4.841 -10.343  0.00  0.00    +0.057 A 
ATOM      6  C   UNL     1     -16.484   3.450 -10.044  0.00  0.00    +0.037 A 
ATOM      7  C   UNL     1     -17.029   2.966  -8.815  0.00  0.00    +0.052 A 
ATOM      8  C   UNL     1     -17.315   3.932  -7.843  0.00  0.00    +0.062 A 
ATOM      9 CL   UNL     1     -17.975   3.480  -6.308  0.00  0.00    -0.082 Cl
ATOM     10  C   UNL     1     -17.104   5.299  -8.098  0.00  0.00    +0.022 A 
ATOM     11  C   UNL     1     -16.582   5.747  -9.326  0.00  0.00    +0.014 A 
BRANCH   5  13
ATOM     12  F   UNL     1     -14.290   4.802 -11.153  0.00  0.00    -0.166 F 
ATOM     13  C   UNL     1     -15.582   5.174 -11.641  0.00  0.00    +0.417 C 
ATOM     14  F   UNL     1     -16.066   3.984 -12.264  0.00  0.00    -0.166 F 
ATOM     15  F   UNL     1     -14.908   5.507 -12.939  0.00  0.00    -0.166 F 
ENDBRANCH   5  13
ENDBRANCH   1   7
BRANCH   3  16
ATOM     16  C   UNL     1     -16.597  -0.763  -7.763  0.00  0.00    +0.224 C 
BRANCH  16  17
ATOM     17  C   UNL     1     -15.925  -0.964  -6.345  0.00  0.00    +0.282 C 
ATOM     18  N   UNL     1     -16.443  -0.279  -5.264  0.00  0.00    -0.288 N 
ATOM     19  H   UNL     1     -17.455  -0.406  -5.204  0.00  0.00    +0.301 HD
ATOM     20  H   UNL     1     -16.003  -0.635  -4.418  0.00  0.00    +0.301 HD
ATOM     21  N   UNL     1     -14.877  -1.732  -6.276  0.00  0.00    -0.136 N 
ATOM     22  H   UNL     1     -14.477  -2.210  -7.039  0.00  0.00    +0.348 HD
BRANCH  21  23
ATOM     23  O   UNL     1     -14.396  -1.783  -4.956  0.00  0.00    -0.210 OA
ATOM     24  H   UNL     1     -13.460  -2.026  -5.086  0.00  0.00    +0.271 HD
ENDBRANCH  21  23
ENDBRANCH  16  17
ENDBRANCH   3  16
TORSDOF 5
ENDMDL
MODEL 8
REMARK VINA RESULT:      -6.1      1.934      2.122
REMARK  Name = min_compound969.pdb
REMARK  5 active torsions:
REMARK  status: ('A' for Active; 'I' for Inactive)
REMARK    1  A    between atoms: _2  and  _5
REMARK    2  A    between atoms: _10  and  _16
REMARK    3  A    between atoms: _12  and  _17
REMARK    4  A    between atoms: _14  and  _17
REMARK    5  A    between atoms: _15  and  _19
REMARK                            x       y       z     vdW  Elec       q    Type
REMARK                         _______ _______ _______ _____ _____    ______ ____
ROOT
ATOM      1  N   UNL     1     -15.027  -3.276  -3.061  0.00  0.00    -0.284 N 
ATOM      2  H   UNL     1     -15.326  -4.005  -3.702  0.00  0.00    +0.155 HD
ATOM      3  C   UNL     1     -14.065  -3.587  -2.128  0.00  0.00    +0.229 C 
ATOM      4  O   UNL     1     -13.415  -2.644  -1.636  0.00  0.00    -0.275 OA
ENDROOT
BRANCH   1   7
ATOM      5  C   UNL     1     -15.202   0.064  -5.062  0.00  0.00    +0.057 A 
ATOM      6  C   UNL     1     -14.850  -1.270  -4.643  0.00  0.00    +0.037 A 
ATOM      7  C   UNL     1     -15.349  -1.907  -3.466  0.00  0.00    +0.052 A 
ATOM      8  C   UNL     1     -16.207  -1.142  -2.666  0.00  0.00    +0.062 A 
ATOM      9 CL   UNL     1     -16.879  -1.792  -1.210  0.00  0.00    -0.082 Cl
ATOM     10  C   UNL     1     -16.573   0.163  -3.041  0.00  0.00    +0.022 A 
ATOM     11  C   UNL     1     -16.078   0.758  -4.217  0.00  0.00    +0.014 A 
BRANCH   5  13
ATOM     12  F   UNL     1     -13.451  -0.335  -6.199  0.00  0.00    -0.166 F 
ATOM     13  C   UNL     1     -14.511   0.622  -6.270  0.00  0.00    +0.417 C 
ATOM     14  F   UNL     1     -15.454   0.019  -7.158  0.00  0.00    -0.166 F 
ATOM     15  F   UNL     1     -13.820   1.179  -7.479  0.00  0.00    -0.166 F 
ENDBRANCH   5  13
ENDBRANCH   1   7
BRANCH   3  16
ATOM     16  C   UNL     1     -13.616  -4.983  -1.813  0.00  0.00    +0.224 C 
BRANCH  16  17
ATOM     17  C   UNL     1     -13.604  -4.906  -0.233  0.00  0.00    +0.282 C 
ATOM     18  N   UNL     1     -12.485  -5.349   0.443  0.00  0.00    -0.288 N 
ATOM     19  H   UNL     1     -11.637  -4.933   0.055  0.00  0.00    +0.301 HD
ATOM     20  H   UNL     1     -12.578  -5.088   1.423  0.00  0.00    +0.301 HD
ATOM     21  N   UNL     1     -14.678  -4.470   0.359  0.00  0.00    -0.136 N 
ATOM     22  H   UNL     1     -15.495  -4.172  -0.104  0.00  0.00    +0.348 HD
BRANCH  21  23
ATOM     23  O   UNL     1     -14.505  -4.485   1.754  0.00  0.00    -0.210 OA
ATOM     24  H   UNL     1     -13.760  -3.868   1.876  0.00  0.00    +0.271 HD
ENDBRANCH  21  23
ENDBRANCH  16  17
ENDBRANCH   3  16
TORSDOF 5
ENDMDL
MODEL 9
REMARK VINA RESULT:      -5.9     14.940     16.092
REMARK  Name = min_compound969.pdb
REMARK  5 active torsions:
REMARK  status: ('A' for Active; 'I' for Inactive)
REMARK    1  A    between atoms: _2  and  _5
REMARK    2  A    between atoms: _10  and  _16
REMARK    3  A    between atoms: _12  and  _17
REMARK    4  A    between atoms: _14  and  _17
REMARK    5  A    between atoms: _15  and  _19
REMARK                            x       y       z     vdW  Elec       q    Type
REMARK                         _______ _______ _______ _____ _____    ______ ____
ROOT
ATOM      1  N   UNL     1     -14.228   4.551 -15.565  0.00  0.00    -0.284 N 
ATOM      2  H   UNL     1     -14.227   5.467 -15.126  0.00  0.00    +0.155 HD
ATOM      3  C   UNL     1     -15.433   4.028 -15.974  0.00  0.00    +0.229 C 
ATOM      4  O   UNL     1     -15.408   3.140 -16.847  0.00  0.00    -0.275 OA
ENDROOT
BRANCH   1   7
ATOM      5  C   UNL     1     -11.060   2.381 -16.233  0.00  0.00    +0.057 A 
ATOM      6  C   UNL     1     -12.315   2.854 -15.702  0.00  0.00    +0.037 A 
ATOM      7  C   UNL     1     -12.933   4.089 -16.068  0.00  0.00    +0.052 A 
ATOM      8  C   UNL     1     -12.228   4.888 -16.977  0.00  0.00    +0.062 A 
ATOM      9 CL   UNL     1     -12.864   6.411 -17.500  0.00  0.00    -0.082 Cl
ATOM     10  C   UNL     1     -11.002   4.460 -17.514  0.00  0.00    +0.022 A 
ATOM     11  C   UNL     1     -10.425   3.230 -17.148  0.00  0.00    +0.014 A 
BRANCH   5  13
ATOM     12  F   UNL     1     -11.604   0.328 -16.130  0.00  0.00    -0.166 F 
ATOM     13  C   UNL     1     -10.499   1.110 -15.669  0.00  0.00    +0.417 C 
ATOM     14  F   UNL     1      -9.540   0.998 -16.722  0.00  0.00    -0.166 F 
ATOM     15  F   UNL     1      -9.938  -0.161 -15.104  0.00  0.00    -0.166 F 
ENDBRANCH   5  13
ENDBRANCH   1   7
BRANCH   3  16
ATOM     16  C   UNL     1     -16.770   4.588 -15.585  0.00  0.00    +0.224 C 
BRANCH  16  17
ATOM     17  C   UNL     1     -17.707   3.665 -16.464  0.00  0.00    +0.282 C 
ATOM     18  N   UNL     1     -18.208   2.507 -15.904  0.00  0.00    -0.288 N 
ATOM     19  H   UNL     1     -18.638   2.697 -14.997  0.00  0.00    +0.301 HD
ATOM     20  H   UNL     1     -18.904   2.119 -16.538  0.00  0.00    +0.301 HD
ATOM     21  N   UNL     1     -17.921   4.021 -17.698  0.00  0.00    -0.136 N 
ATOM     22  H   UNL     1     -17.553   4.829 -18.123  0.00  0.00    +0.348 HD
BRANCH  21  23
ATOM     23  O   UNL     1     -18.753   3.084 -18.337  0.00  0.00    -0.210 OA
ATOM     24  H   UNL     1     -18.848   2.393 -17.654  0.00  0.00    +0.271 HD
ENDBRANCH  21  23
ENDBRANCH  16  17
ENDBRANCH   3  16
TORSDOF 5
ENDMDL
