MODEL 1
REMARK VINA RESULT:      -7.2      0.000      0.000
REMARK  Name = min_compound963.pdb
REMARK  3 active torsions:
REMARK  status: ('A' for Active; 'I' for Inactive)
REMARK    1  A    between atoms: _7  and  _9
REMARK    2  A    between atoms: _11  and  _18
REMARK    3  A    between atoms: _15  and  _16
REMARK                            x       y       z     vdW  Elec       q    Type
REMARK                         _______ _______ _______ _____ _____    ______ ____
ROOT
ATOM      1  C   UNL     1     -14.934   1.012  -6.553  0.00  0.00    +0.250 C 
ATOM      2  N   UNL     1     -16.224   1.421  -6.821  0.00  0.00    -0.281 N 
ATOM      3  H   UNL     1     -16.927   1.213  -6.123  0.00  0.00    +0.155 HD
ATOM      4  O   UNL     1     -13.976   1.190  -7.301  0.00  0.00    -0.270 OA
ENDROOT
BRANCH   1  10
ATOM      5 CL   UNL     1     -14.046  -2.282  -1.561  0.00  0.00    -0.083 Cl
ATOM      6  C   UNL     1     -14.287  -1.312  -2.960  0.00  0.00    +0.042 A 
ATOM      7  C   UNL     1     -14.032   0.055  -2.909  0.00  0.00    +0.040 A 
ATOM      8  C   UNL     1     -14.224   0.859  -4.045  0.00  0.00    +0.054 A 
ATOM      9 CL   UNL     1     -13.863   2.537  -3.819  0.00  0.00    -0.083 Cl
ATOM     10  C   UNL     1     -14.677   0.295  -5.252  0.00  0.00    +0.055 A 
ATOM     11  C   UNL     1     -14.927  -1.096  -5.269  0.00  0.00    +0.016 A 
ATOM     12  C   UNL     1     -14.734  -1.894  -4.137  0.00  0.00    +0.021 A 
ENDBRANCH   1  10
BRANCH   2  13
ATOM     13  C   UNL     1     -16.703   2.102  -7.962  0.00  0.00    +0.035 A 
ATOM     14  C   UNL     1     -18.081   2.025  -8.213  0.00  0.00    +0.023 A 
ATOM     15  C   UNL     1     -18.646   2.667  -9.317  0.00  0.00    +0.003 A 
ATOM     16  C   UNL     1     -17.837   3.395 -10.185  0.00  0.00    +0.017 A 
ATOM     17  C   UNL     1     -16.464   3.480  -9.947  0.00  0.00    +0.026 A 
ATOM     18  C   UNL     1     -15.900   2.836  -8.839  0.00  0.00    +0.040 A 
BRANCH  17  19
ATOM     19  C   UNL     1     -15.632   4.229 -10.839  0.00  0.00    -0.070 C 
ATOM     20  C   UNL     1     -14.933   4.856 -11.587  0.00  0.00    +0.009 C 
ENDBRANCH  17  19
ENDBRANCH   2  13
TORSDOF 3
ENDMDL
MODEL 2
REMARK VINA RESULT:      -7.2      8.036     10.336
REMARK  Name = min_compound963.pdb
REMARK  3 active torsions:
REMARK  status: ('A' for Active; 'I' for Inactive)
REMARK    1  A    between atoms: _7  and  _9
REMARK    2  A    between atoms: _11  and  _18
REMARK    3  A    between atoms: _15  and  _16
REMARK                            x       y       z     vdW  Elec       q    Type
REMARK                         _______ _______ _______ _____ _____    ______ ____
ROOT
ATOM      1  C   UNL     1     -14.883   3.286 -15.391  0.00  0.00    +0.250 C 
ATOM      2  N   UNL     1     -13.583   3.584 -15.037  0.00  0.00    -0.281 N 
ATOM      3  H   UNL     1     -13.448   4.122 -14.191  0.00  0.00    +0.155 HD
ATOM      4  O   UNL     1     -15.205   2.643 -16.386  0.00  0.00    -0.270 OA
ENDROOT
BRANCH   1  10
ATOM      5 CL   UNL     1     -19.386   4.804 -11.651  0.00  0.00    -0.083 Cl
ATOM      6  C   UNL     1     -18.101   4.411 -12.725  0.00  0.00    +0.042 A 
ATOM      7  C   UNL     1     -17.472   5.417 -13.450  0.00  0.00    +0.040 A 
ATOM      8  C   UNL     1     -16.421   5.111 -14.331  0.00  0.00    +0.054 A 
ATOM      9 CL   UNL     1     -15.743   6.473 -15.158  0.00  0.00    -0.083 Cl
ATOM     10  C   UNL     1     -15.989   3.782 -14.493  0.00  0.00    +0.055 A 
ATOM     11  C   UNL     1     -16.650   2.784 -13.741  0.00  0.00    +0.016 A 
ATOM     12  C   UNL     1     -17.695   3.092 -12.865  0.00  0.00    +0.021 A 
ENDBRANCH   1  10
BRANCH   2  13
ATOM     13  C   UNL     1     -12.394   3.231 -15.714  0.00  0.00    +0.035 A 
ATOM     14  C   UNL     1     -11.789   4.230 -16.491  0.00  0.00    +0.023 A 
ATOM     15  C   UNL     1     -10.610   3.974 -17.196  0.00  0.00    +0.003 A 
ATOM     16  C   UNL     1     -10.022   2.714 -17.131  0.00  0.00    +0.017 A 
ATOM     17  C   UNL     1     -10.615   1.712 -16.360  0.00  0.00    +0.026 A 
ATOM     18  C   UNL     1     -11.796   1.970 -15.655  0.00  0.00    +0.040 A 
BRANCH  17  19
ATOM     19  C   UNL     1     -10.010   0.416 -16.293  0.00  0.00    -0.070 C 
ATOM     20  C   UNL     1      -9.501  -0.671 -16.235  0.00  0.00    +0.009 C 
ENDBRANCH  17  19
ENDBRANCH   2  13
TORSDOF 3
ENDMDL
MODEL 3
REMARK VINA RESULT:      -7.1      2.221      2.942
REMARK  Name = min_compound963.pdb
REMARK  3 active torsions:
REMARK  status: ('A' for Active; 'I' for Inactive)
REMARK    1  A    between atoms: _7  and  _9
REMARK    2  A    between atoms: _11  and  _18
REMARK    3  A    between atoms: _15  and  _16
REMARK                            x       y       z     vdW  Elec       q    Type
REMARK                         _______ _______ _______ _____ _____    ______ ____
ROOT
ATOM      1  C   UNL     1     -16.618   1.570  -8.039  0.00  0.00    +0.250 C 
ATOM      2  N   UNL     1     -16.620   2.752  -8.751  0.00  0.00    -0.281 N 
ATOM      3  H   UNL     1     -16.094   3.524  -8.362  0.00  0.00    +0.155 HD
ATOM      4  O   UNL     1     -17.208   0.549  -8.381  0.00  0.00    -0.270 OA
ENDROOT
BRANCH   1  10
ATOM      5 CL   UNL     1     -13.149   1.117  -3.108  0.00  0.00    -0.083 Cl
ATOM      6  C   UNL     1     -14.162   1.268  -4.489  0.00  0.00    +0.042 A 
ATOM      7  C   UNL     1     -15.350   1.987  -4.402  0.00  0.00    +0.040 A 
ATOM      8  C   UNL     1     -16.187   2.119  -5.522  0.00  0.00    +0.054 A 
ATOM      9 CL   UNL     1     -17.626   3.043  -5.253  0.00  0.00    -0.083 Cl
ATOM     10  C   UNL     1     -15.837   1.525  -6.749  0.00  0.00    +0.055 A 
ATOM     11  C   UNL     1     -14.624   0.802  -6.803  0.00  0.00    +0.016 A 
ATOM     12  C   UNL     1     -13.793   0.673  -5.686  0.00  0.00    +0.021 A 
ENDBRANCH   1  10
BRANCH   2  13
ATOM     13  C   UNL     1     -17.272   3.032  -9.973  0.00  0.00    +0.035 A 
ATOM     14  C   UNL     1     -18.528   3.651  -9.892  0.00  0.00    +0.023 A 
ATOM     15  C   UNL     1     -19.248   3.966 -11.046  0.00  0.00    +0.003 A 
ATOM     16  C   UNL     1     -18.717   3.666 -12.298  0.00  0.00    +0.017 A 
ATOM     17  C   UNL     1     -17.468   3.051 -12.392  0.00  0.00    +0.026 A 
ATOM     18  C   UNL     1     -16.748   2.735 -11.233  0.00  0.00    +0.040 A 
BRANCH  17  19
ATOM     19  C   UNL     1     -16.922   2.742 -13.679  0.00  0.00    -0.070 C 
ATOM     20  C   UNL     1     -16.464   2.486 -14.760  0.00  0.00    +0.009 C 
ENDBRANCH  17  19
ENDBRANCH   2  13
TORSDOF 3
ENDMDL
MODEL 4
REMARK VINA RESULT:      -7.1      7.780     10.154
REMARK  Name = min_compound963.pdb
REMARK  3 active torsions:
REMARK  status: ('A' for Active; 'I' for Inactive)
REMARK    1  A    between atoms: _7  and  _9
REMARK    2  A    between atoms: _11  and  _18
REMARK    3  A    between atoms: _15  and  _16
REMARK                            x       y       z     vdW  Elec       q    Type
REMARK                         _______ _______ _______ _____ _____    ______ ____
ROOT
ATOM      1  C   UNL     1     -13.284   3.789 -15.821  0.00  0.00    +0.250 C 
ATOM      2  N   UNL     1     -13.988   3.579 -14.653  0.00  0.00    -0.281 N 
ATOM      3  H   UNL     1     -13.820   2.709 -14.164  0.00  0.00    +0.155 HD
ATOM      4  O   UNL     1     -13.380   4.793 -16.522  0.00  0.00    -0.270 OA
ENDROOT
BRANCH   1  10
ATOM      5 CL   UNL     1      -9.842  -0.835 -17.646  0.00  0.00    -0.083 Cl
ATOM      6  C   UNL     1     -10.788   0.503 -17.126  0.00  0.00    +0.042 A 
ATOM      7  C   UNL     1     -10.180   1.732 -16.889  0.00  0.00    +0.040 A 
ATOM      8  C   UNL     1     -10.940   2.834 -16.463  0.00  0.00    +0.054 A 
ATOM      9 CL   UNL     1     -10.037   4.290 -16.212  0.00  0.00    -0.083 Cl
ATOM     10  C   UNL     1     -12.328   2.713 -16.271  0.00  0.00    +0.055 A 
ATOM     11  C   UNL     1     -12.914   1.451 -16.521  0.00  0.00    +0.016 A 
ATOM     12  C   UNL     1     -12.155   0.356 -16.944  0.00  0.00    +0.021 A 
ENDBRANCH   1  10
BRANCH   2  13
ATOM     13  C   UNL     1     -14.930   4.434 -14.037  0.00  0.00    +0.035 A 
ATOM     14  C   UNL     1     -15.712   5.229 -14.888  0.00  0.00    +0.023 A 
ATOM     15  C   UNL     1     -16.669   6.105 -14.371  0.00  0.00    +0.003 A 
ATOM     16  C   UNL     1     -16.856   6.195 -12.994  0.00  0.00    +0.017 A 
ATOM     17  C   UNL     1     -16.084   5.409 -12.137  0.00  0.00    +0.026 A 
ATOM     18  C   UNL     1     -15.125   4.531 -12.658  0.00  0.00    +0.040 A 
BRANCH  17  19
ATOM     19  C   UNL     1     -16.276   5.502 -10.721  0.00  0.00    -0.070 C 
ATOM     20  C   UNL     1     -16.437   5.577  -9.534  0.00  0.00    +0.009 C 
ENDBRANCH  17  19
ENDBRANCH   2  13
TORSDOF 3
ENDMDL
MODEL 5
REMARK VINA RESULT:      -7.0      7.833     10.214
REMARK  Name = min_compound963.pdb
REMARK  3 active torsions:
REMARK  status: ('A' for Active; 'I' for Inactive)
REMARK    1  A    between atoms: _7  and  _9
REMARK    2  A    between atoms: _11  and  _18
REMARK    3  A    between atoms: _15  and  _16
REMARK                            x       y       z     vdW  Elec       q    Type
REMARK                         _______ _______ _______ _____ _____    ______ ____
ROOT
ATOM      1  C   UNL     1     -13.867   2.950 -15.884  0.00  0.00    +0.250 C 
ATOM      2  N   UNL     1     -14.940   2.199 -15.448  0.00  0.00    -0.281 N 
ATOM      3  H   UNL     1     -14.828   1.193 -15.450  0.00  0.00    +0.155 HD
ATOM      4  O   UNL     1     -13.851   4.177 -15.938  0.00  0.00    -0.270 OA
ENDROOT
BRANCH   1  10
ATOM      5 CL   UNL     1      -9.163  -0.407 -17.660  0.00  0.00    -0.083 Cl
ATOM      6  C   UNL     1     -10.476   0.580 -17.155  0.00  0.00    +0.042 A 
ATOM      7  C   UNL     1     -10.282   1.943 -16.951  0.00  0.00    +0.040 A 
ATOM      8  C   UNL     1     -11.346   2.761 -16.538  0.00  0.00    +0.054 A 
ATOM      9 CL   UNL     1     -10.942   4.432 -16.328  0.00  0.00    -0.083 Cl
ATOM     10  C   UNL     1     -12.625   2.216 -16.324  0.00  0.00    +0.055 A 
ATOM     11  C   UNL     1     -12.789   0.829 -16.541  0.00  0.00    +0.016 A 
ATOM     12  C   UNL     1     -11.728   0.017 -16.952  0.00  0.00    +0.021 A 
ENDBRANCH   1  10
BRANCH   2  13
ATOM     13  C   UNL     1     -16.196   2.657 -14.991  0.00  0.00    +0.035 A 
ATOM     14  C   UNL     1     -17.138   3.002 -15.971  0.00  0.00    +0.023 A 
ATOM     15  C   UNL     1     -18.407   3.464 -15.615  0.00  0.00    +0.003 A 
ATOM     16  C   UNL     1     -18.748   3.588 -14.271  0.00  0.00    +0.017 A 
ATOM     17  C   UNL     1     -17.819   3.249 -13.286  0.00  0.00    +0.026 A 
ATOM     18  C   UNL     1     -16.548   2.785 -13.646  0.00  0.00    +0.040 A 
BRANCH  17  19
ATOM     19  C   UNL     1     -18.170   3.377 -11.904  0.00  0.00    -0.070 C 
ATOM     20  C   UNL     1     -18.466   3.483 -10.745  0.00  0.00    +0.009 C 
ENDBRANCH  17  19
ENDBRANCH   2  13
TORSDOF 3
ENDMDL
MODEL 6
REMARK VINA RESULT:      -7.0      4.827      6.313
REMARK  Name = min_compound963.pdb
REMARK  3 active torsions:
REMARK  status: ('A' for Active; 'I' for Inactive)
REMARK    1  A    between atoms: _7  and  _9
REMARK    2  A    between atoms: _11  and  _18
REMARK    3  A    between atoms: _15  and  _16
REMARK                            x       y       z     vdW  Elec       q    Type
REMARK                         _______ _______ _______ _____ _____    ______ ____
ROOT
ATOM      1  C   UNL     1     -14.964  -2.107  -1.869  0.00  0.00    +0.250 C 
ATOM      2  N   UNL     1     -14.503  -1.424  -2.976  0.00  0.00    -0.281 N 
ATOM      3  H   UNL     1     -14.011  -1.963  -3.677  0.00  0.00    +0.155 HD
ATOM      4  O   UNL     1     -15.576  -1.593  -0.937  0.00  0.00    -0.270 OA
ENDROOT
BRANCH   1  10
ATOM      5 CL   UNL     1     -13.433  -7.941  -1.447  0.00  0.00    -0.083 Cl
ATOM      6  C   UNL     1     -13.906  -6.293  -1.577  0.00  0.00    +0.042 A 
ATOM      7  C   UNL     1     -15.213  -5.973  -1.932  0.00  0.00    +0.040 A 
ATOM      8  C   UNL     1     -15.613  -4.631  -2.042  0.00  0.00    +0.054 A 
ATOM      9 CL   UNL     1     -17.269  -4.398  -2.492  0.00  0.00    -0.083 Cl
ATOM     10  C   UNL     1     -14.699  -3.590  -1.795  0.00  0.00    +0.055 A 
ATOM     11  C   UNL     1     -13.380  -3.951  -1.437  0.00  0.00    +0.016 A 
ATOM     12  C   UNL     1     -12.985  -5.287  -1.328  0.00  0.00    +0.021 A 
ENDBRANCH   1  10
BRANCH   2  13
ATOM     13  C   UNL     1     -14.630  -0.047  -3.264  0.00  0.00    +0.035 A 
ATOM     14  C   UNL     1     -13.450   0.712  -3.256  0.00  0.00    +0.023 A 
ATOM     15  C   UNL     1     -13.476   2.081  -3.530  0.00  0.00    +0.003 A 
ATOM     16  C   UNL     1     -14.686   2.709  -3.816  0.00  0.00    +0.017 A 
ATOM     17  C   UNL     1     -15.867   1.965  -3.827  0.00  0.00    +0.026 A 
ATOM     18  C   UNL     1     -15.838   0.592  -3.552  0.00  0.00    +0.040 A 
BRANCH  17  19
ATOM     19  C   UNL     1     -17.111   2.610  -4.121  0.00  0.00    -0.070 C 
ATOM     20  C   UNL     1     -18.155   3.149  -4.368  0.00  0.00    +0.009 C 
ENDBRANCH  17  19
ENDBRANCH   2  13
TORSDOF 3
ENDMDL
MODEL 7
REMARK VINA RESULT:      -7.0     10.690     11.240
REMARK  Name = min_compound963.pdb
REMARK  3 active torsions:
REMARK  status: ('A' for Active; 'I' for Inactive)
REMARK    1  A    between atoms: _7  and  _9
REMARK    2  A    between atoms: _11  and  _18
REMARK    3  A    between atoms: _15  and  _16
REMARK                            x       y       z     vdW  Elec       q    Type
REMARK                         _______ _______ _______ _____ _____    ______ ____
ROOT
ATOM      1  C   UNL     1     -13.383   3.694 -16.467  0.00  0.00    +0.250 C 
ATOM      2  N   UNL     1     -13.101   4.732 -17.332  0.00  0.00    -0.281 N 
ATOM      3  H   UNL     1     -12.227   4.683 -17.840  0.00  0.00    +0.155 HD
ATOM      4  O   UNL     1     -14.401   3.613 -15.784  0.00  0.00    -0.270 OA
ENDROOT
BRANCH   1  10
ATOM      5 CL   UNL     1      -9.692  -1.083 -16.132  0.00  0.00    -0.083 Cl
ATOM      6  C   UNL     1     -10.711   0.299 -16.216  0.00  0.00    +0.042 A 
ATOM      7  C   UNL     1     -10.203   1.556 -15.903  0.00  0.00    +0.040 A 
ATOM      8  C   UNL     1     -11.023   2.694 -15.967  0.00  0.00    +0.054 A 
ATOM      9 CL   UNL     1     -10.242   4.181 -15.548  0.00  0.00    -0.083 Cl
ATOM     10  C   UNL     1     -12.373   2.581 -16.348  0.00  0.00    +0.055 A 
ATOM     11  C   UNL     1     -12.858   1.290 -16.659  0.00  0.00    +0.016 A 
ATOM     12  C   UNL     1     -12.038   0.159 -16.595  0.00  0.00    +0.021 A 
ENDBRANCH   1  10
BRANCH   2  13
ATOM     13  C   UNL     1     -13.886   5.873 -17.609  0.00  0.00    +0.035 A 
ATOM     14  C   UNL     1     -14.255   6.077 -18.947  0.00  0.00    +0.023 A 
ATOM     15  C   UNL     1     -15.031   7.179 -19.316  0.00  0.00    +0.003 A 
ATOM     16  C   UNL     1     -15.446   8.091 -18.349  0.00  0.00    +0.017 A 
ATOM     17  C   UNL     1     -15.084   7.899 -17.015  0.00  0.00    +0.026 A 
ATOM     18  C   UNL     1     -14.307   6.794 -16.647  0.00  0.00    +0.040 A 
BRANCH  17  19
ATOM     19  C   UNL     1     -15.511   8.837 -16.021  0.00  0.00    -0.070 C 
ATOM     20  C   UNL     1     -15.872   9.623 -15.188  0.00  0.00    +0.009 C 
ENDBRANCH  17  19
ENDBRANCH   2  13
TORSDOF 3
ENDMDL
MODEL 8
REMARK VINA RESULT:      -6.9      9.244     10.028
REMARK  Name = min_compound963.pdb
REMARK  3 active torsions:
REMARK  status: ('A' for Active; 'I' for Inactive)
REMARK    1  A    between atoms: _7  and  _9
REMARK    2  A    between atoms: _11  and  _18
REMARK    3  A    between atoms: _15  and  _16
REMARK                            x       y       z     vdW  Elec       q    Type
REMARK                         _______ _______ _______ _____ _____    ______ ____
ROOT
ATOM      1  C   UNL     1     -13.796   2.897 -16.208  0.00  0.00    +0.250 C 
ATOM      2  N   UNL     1     -14.193   3.431 -14.999  0.00  0.00    -0.281 N 
ATOM      3  H   UNL     1     -13.635   3.196 -14.187  0.00  0.00    +0.155 HD
ATOM      4  O   UNL     1     -14.369   3.089 -17.277  0.00  0.00    -0.270 OA
ENDROOT
BRANCH   1  10
ATOM      5 CL   UNL     1      -9.190  -1.016 -16.392  0.00  0.00    -0.083 Cl
ATOM      6  C   UNL     1     -10.474   0.126 -16.329  0.00  0.00    +0.042 A 
ATOM      7  C   UNL     1     -10.209   1.449 -15.990  0.00  0.00    +0.040 A 
ATOM      8  C   UNL     1     -11.248   2.393 -15.935  0.00  0.00    +0.054 A 
ATOM      9 CL   UNL     1     -10.756   3.995 -15.498  0.00  0.00    -0.083 Cl
ATOM     10  C   UNL     1     -12.573   2.015 -16.221  0.00  0.00    +0.055 A 
ATOM     11  C   UNL     1     -12.807   0.663 -16.562  0.00  0.00    +0.016 A 
ATOM     12  C   UNL     1     -11.771  -0.274 -16.616  0.00  0.00    +0.021 A 
ENDBRANCH   1  10
BRANCH   2  13
ATOM     13  C   UNL     1     -15.295   4.276 -14.739  0.00  0.00    +0.035 A 
ATOM     14  C   UNL     1     -16.504   3.652 -14.398  0.00  0.00    +0.023 A 
ATOM     15  C   UNL     1     -17.647   4.405 -14.124  0.00  0.00    +0.003 A 
ATOM     16  C   UNL     1     -17.594   5.795 -14.189  0.00  0.00    +0.017 A 
ATOM     17  C   UNL     1     -16.397   6.428 -14.527  0.00  0.00    +0.026 A 
ATOM     18  C   UNL     1     -15.252   5.670 -14.801  0.00  0.00    +0.040 A 
BRANCH  17  19
ATOM     19  C   UNL     1     -16.342   7.857 -14.593  0.00  0.00    -0.070 C 
ATOM     20  C   UNL     1     -16.294   9.056 -14.648  0.00  0.00    +0.009 C 
ENDBRANCH  17  19
ENDBRANCH   2  13
TORSDOF 3
ENDMDL
MODEL 9
REMARK VINA RESULT:      -6.7      3.612      5.243
REMARK  Name = min_compound963.pdb
REMARK  3 active torsions:
REMARK  status: ('A' for Active; 'I' for Inactive)
REMARK    1  A    between atoms: _7  and  _9
REMARK    2  A    between atoms: _11  and  _18
REMARK    3  A    between atoms: _15  and  _16
REMARK                            x       y       z     vdW  Elec       q    Type
REMARK                         _______ _______ _______ _____ _____    ______ ____
ROOT
ATOM      1  C   UNL     1     -15.300  -2.120  -3.164  0.00  0.00    +0.250 C 
ATOM      2  N   UNL     1     -14.828  -2.030  -4.458  0.00  0.00    -0.281 N 
ATOM      3  H   UNL     1     -14.250  -2.792  -4.791  0.00  0.00    +0.155 HD
ATOM      4  O   UNL     1     -16.010  -1.278  -2.621  0.00  0.00    -0.270 OA
ENDROOT
BRANCH   1  10
ATOM      5 CL   UNL     1     -13.318  -6.799   0.114  0.00  0.00    -0.083 Cl
ATOM      6  C   UNL     1     -13.918  -5.486  -0.821  0.00  0.00    +0.042 A 
ATOM      7  C   UNL     1     -15.236  -5.496  -1.264  0.00  0.00    +0.040 A 
ATOM      8  C   UNL     1     -15.740  -4.430  -2.029  0.00  0.00    +0.054 A 
ATOM      9 CL   UNL     1     -17.397  -4.592  -2.503  0.00  0.00    -0.083 Cl
ATOM     10  C   UNL     1     -14.919  -3.336  -2.358  0.00  0.00    +0.055 A 
ATOM     11  C   UNL     1     -13.585  -3.358  -1.891  0.00  0.00    +0.016 A 
ATOM     12  C   UNL     1     -13.086  -4.420  -1.131  0.00  0.00    +0.021 A 
ENDBRANCH   1  10
BRANCH   2  13
ATOM     13  C   UNL     1     -15.049  -0.998  -5.396  0.00  0.00    +0.035 A 
ATOM     14  C   UNL     1     -13.935  -0.227  -5.762  0.00  0.00    +0.023 A 
ATOM     15  C   UNL     1     -14.057   0.816  -6.683  0.00  0.00    +0.003 A 
ATOM     16  C   UNL     1     -15.296   1.101  -7.250  0.00  0.00    +0.017 A 
ATOM     17  C   UNL     1     -16.412   0.341  -6.894  0.00  0.00    +0.026 A 
ATOM     18  C   UNL     1     -16.288  -0.704  -5.970  0.00  0.00    +0.040 A 
BRANCH  17  19
ATOM     19  C   UNL     1     -17.686   0.634  -7.477  0.00  0.00    -0.070 C 
ATOM     20  C   UNL     1     -18.754   0.881  -7.967  0.00  0.00    +0.009 C 
ENDBRANCH  17  19
ENDBRANCH   2  13
TORSDOF 3
ENDMDL
