MODEL 1
REMARK VINA RESULT:      -6.4      0.000      0.000
REMARK  Name = min_compound937.pdb
REMARK  8 active torsions:
REMARK  status: ('A' for Active; 'I' for Inactive)
REMARK    1  A    between atoms: _1  and  _2
REMARK    2  A    between atoms: _1  and  _10
REMARK    3  A    between atoms: _2  and  _17
REMARK    4  A    between atoms: _4  and  _17
REMARK    5  A    between atoms: _7  and  _18
REMARK    6  A    between atoms: _12  and  _15
REMARK    7  A    between atoms: _15  and  _16
REMARK    8  A    between atoms: _18  and  _19
REMARK                            x       y       z     vdW  Elec       q    Type
REMARK                         _______ _______ _______ _____ _____    ______ ____
ROOT
ATOM      1  N   UNL     1     -13.376   2.788 -18.025  0.00  0.00    -0.163 NA
ATOM      2  H   UNL     1     -12.434   2.801 -18.416  0.00  0.00    +0.168 HD
ENDROOT
BRANCH   1   3
ATOM      3  N   UNL     1     -13.412   2.023 -16.916  0.00  0.00    -0.261 N 
ATOM      4  H   UNL     1     -13.893   2.422 -16.116  0.00  0.00    +0.168 HD
BRANCH   3   5
ATOM      5  C   UNL     1     -12.266   1.279 -16.560  0.00  0.00    +0.084 A 
ATOM      6  C   UNL     1     -11.235   1.904 -15.824  0.00  0.00    +0.142 A 
ATOM      7  C   UNL     1     -10.132   1.158 -15.397  0.00  0.00    +0.047 A 
ATOM      8  C   UNL     1     -10.050  -0.207 -15.687  0.00  0.00    +0.004 A 
ATOM      9  C   UNL     1     -11.068  -0.833 -16.401  0.00  0.00    +0.002 A 
ATOM     10  C   UNL     1     -12.172  -0.094 -16.830  0.00  0.00    +0.028 A 
BRANCH   6  11
ATOM     11  O   UNL     1     -11.413   3.249 -15.595  0.00  0.00    -0.493 OA
ATOM     12  C   UNL     1     -10.270   4.084 -15.733  0.00  0.00    +0.277 C 
ENDBRANCH   6  11
ENDBRANCH   3   5
ENDBRANCH   1   3
BRANCH   1  13
ATOM     13  N   UNL     1     -13.710   3.932 -17.666  0.00  0.00    -0.261 N 
ATOM     14  H   UNL     1     -14.366   4.115 -16.955  0.00  0.00    +0.168 HD
BRANCH  13  15
ATOM     15  C   UNL     1     -13.039   4.937 -18.396  0.00  0.00    +0.084 A 
ATOM     16  C   UNL     1     -12.910   4.962 -19.799  0.00  0.00    +0.142 A 
ATOM     17  C   UNL     1     -12.292   6.042 -20.444  0.00  0.00    +0.047 A 
ATOM     18  C   UNL     1     -11.769   7.096 -19.698  0.00  0.00    +0.004 A 
ATOM     19  C   UNL     1     -11.875   7.083 -18.310  0.00  0.00    +0.002 A 
ATOM     20  C   UNL     1     -12.512   6.016 -17.669  0.00  0.00    +0.028 A 
BRANCH  16  21
ATOM     21  O   UNL     1     -13.468   3.969 -20.565  0.00  0.00    -0.493 OA
ATOM     22  C   UNL     1     -14.669   4.429 -21.187  0.00  0.00    +0.277 C 
ENDBRANCH  16  21
ENDBRANCH  13  15
ENDBRANCH   1  13
TORSDOF 6
ENDMDL
MODEL 2
REMARK VINA RESULT:      -6.3      3.792      4.784
REMARK  Name = min_compound937.pdb
REMARK  8 active torsions:
REMARK  status: ('A' for Active; 'I' for Inactive)
REMARK    1  A    between atoms: _1  and  _2
REMARK    2  A    between atoms: _1  and  _10
REMARK    3  A    between atoms: _2  and  _17
REMARK    4  A    between atoms: _4  and  _17
REMARK    5  A    between atoms: _7  and  _18
REMARK    6  A    between atoms: _12  and  _15
REMARK    7  A    between atoms: _15  and  _16
REMARK    8  A    between atoms: _18  and  _19
REMARK                            x       y       z     vdW  Elec       q    Type
REMARK                         _______ _______ _______ _____ _____    ______ ____
ROOT
ATOM      1  N   UNL     1     -14.476   2.201 -15.996  0.00  0.00    -0.163 NA
ATOM      2  H   UNL     1     -15.319   1.798 -16.407  0.00  0.00    +0.168 HD
ENDROOT
BRANCH   1   3
ATOM      3  N   UNL     1     -13.456   2.147 -16.875  0.00  0.00    -0.261 N 
ATOM      4  H   UNL     1     -13.716   2.078 -17.855  0.00  0.00    +0.168 HD
BRANCH   3   5
ATOM      5  C   UNL     1     -12.310   1.389 -16.549  0.00  0.00    +0.084 A 
ATOM      6  C   UNL     1     -11.279   1.984 -15.789  0.00  0.00    +0.142 A 
ATOM      7  C   UNL     1     -10.175   1.222 -15.393  0.00  0.00    +0.047 A 
ATOM      8  C   UNL     1     -10.095  -0.131 -15.736  0.00  0.00    +0.004 A 
ATOM      9  C   UNL     1     -11.113  -0.727 -16.474  0.00  0.00    +0.002 A 
ATOM     10  C   UNL     1     -12.217   0.028 -16.873  0.00  0.00    +0.028 A 
BRANCH   6  11
ATOM     11  O   UNL     1     -11.456   3.320 -15.507  0.00  0.00    -0.493 OA
ATOM     12  C   UNL     1     -10.470   4.219 -15.998  0.00  0.00    +0.277 C 
ENDBRANCH   6  11
ENDBRANCH   3   5
ENDBRANCH   1   3
BRANCH   1  13
ATOM     13  N   UNL     1     -14.653   3.407 -15.745  0.00  0.00    -0.261 N 
ATOM     14  H   UNL     1     -14.378   4.139 -16.344  0.00  0.00    +0.168 HD
BRANCH  13  15
ATOM     15  C   UNL     1     -15.293   3.604 -14.502  0.00  0.00    +0.084 A 
ATOM     16  C   UNL     1     -16.547   3.068 -14.149  0.00  0.00    +0.142 A 
ATOM     17  C   UNL     1     -17.071   3.251 -12.863  0.00  0.00    +0.047 A 
ATOM     18  C   UNL     1     -16.365   3.997 -11.921  0.00  0.00    +0.004 A 
ATOM     19  C   UNL     1     -15.130   4.546 -12.254  0.00  0.00    +0.002 A 
ATOM     20  C   UNL     1     -14.598   4.343 -13.532  0.00  0.00    +0.028 A 
BRANCH  16  21
ATOM     21  O   UNL     1     -17.238   2.278 -15.035  0.00  0.00    -0.493 OA
ATOM     22  C   UNL     1     -18.402   2.955 -15.512  0.00  0.00    +0.277 C 
ENDBRANCH  16  21
ENDBRANCH  13  15
ENDBRANCH   1  13
TORSDOF 6
ENDMDL
MODEL 3
REMARK VINA RESULT:      -6.2      3.304      5.893
REMARK  Name = min_compound937.pdb
REMARK  8 active torsions:
REMARK  status: ('A' for Active; 'I' for Inactive)
REMARK    1  A    between atoms: _1  and  _2
REMARK    2  A    between atoms: _1  and  _10
REMARK    3  A    between atoms: _2  and  _17
REMARK    4  A    between atoms: _4  and  _17
REMARK    5  A    between atoms: _7  and  _18
REMARK    6  A    between atoms: _12  and  _15
REMARK    7  A    between atoms: _15  and  _16
REMARK    8  A    between atoms: _18  and  _19
REMARK                            x       y       z     vdW  Elec       q    Type
REMARK                         _______ _______ _______ _____ _____    ______ ____
ROOT
ATOM      1  N   UNL     1     -14.564   1.407 -16.007  0.00  0.00    -0.163 NA
ATOM      2  H   UNL     1     -14.274   1.141 -15.065  0.00  0.00    +0.168 HD
ENDROOT
BRANCH   1   3
ATOM      3  N   UNL     1     -15.560   2.312 -15.951  0.00  0.00    -0.261 N 
ATOM      4  H   UNL     1     -15.675   2.899 -16.772  0.00  0.00    +0.168 HD
BRANCH   3   5
ATOM      5  C   UNL     1     -15.793   3.001 -14.740  0.00  0.00    +0.084 A 
ATOM      6  C   UNL     1     -15.162   4.245 -14.519  0.00  0.00    +0.142 A 
ATOM      7  C   UNL     1     -15.444   4.975 -13.359  0.00  0.00    +0.047 A 
ATOM      8  C   UNL     1     -16.359   4.483 -12.424  0.00  0.00    +0.004 A 
ATOM      9  C   UNL     1     -16.996   3.264 -12.642  0.00  0.00    +0.002 A 
ATOM     10  C   UNL     1     -16.718   2.531 -13.796  0.00  0.00    +0.028 A 
BRANCH   6  11
ATOM     11  O   UNL     1     -14.279   4.636 -15.500  0.00  0.00    -0.493 OA
ATOM     12  C   UNL     1     -14.679   5.712 -16.338  0.00  0.00    +0.277 C 
ENDBRANCH   6  11
ENDBRANCH   3   5
ENDBRANCH   1   3
BRANCH   1  13
ATOM     13  N   UNL     1     -13.625   1.963 -16.606  0.00  0.00    -0.261 N 
ATOM     14  H   UNL     1     -13.731   2.762 -17.172  0.00  0.00    +0.168 HD
BRANCH  13  15
ATOM     15  C   UNL     1     -12.392   1.314 -16.381  0.00  0.00    +0.084 A 
ATOM     16  C   UNL     1     -11.264   1.915 -15.788  0.00  0.00    +0.142 A 
ATOM     17  C   UNL     1     -10.104   1.171 -15.533  0.00  0.00    +0.047 A 
ATOM     18  C   UNL     1     -10.044  -0.175 -15.891  0.00  0.00    +0.004 A 
ATOM     19  C   UNL     1     -11.144  -0.783 -16.489  0.00  0.00    +0.002 A 
ATOM     20  C   UNL     1     -12.309  -0.044 -16.724  0.00  0.00    +0.028 A 
BRANCH  16  21
ATOM     21  O   UNL     1     -11.313   3.221 -15.369  0.00  0.00    -0.493 OA
ATOM     22  C   UNL     1     -10.560   4.061 -16.246  0.00  0.00    +0.277 C 
ENDBRANCH  16  21
ENDBRANCH  13  15
ENDBRANCH   1  13
TORSDOF 6
ENDMDL
MODEL 4
REMARK VINA RESULT:      -6.2      0.249      6.198
REMARK  Name = min_compound937.pdb
REMARK  8 active torsions:
REMARK  status: ('A' for Active; 'I' for Inactive)
REMARK    1  A    between atoms: _1  and  _2
REMARK    2  A    between atoms: _1  and  _10
REMARK    3  A    between atoms: _2  and  _17
REMARK    4  A    between atoms: _4  and  _17
REMARK    5  A    between atoms: _7  and  _18
REMARK    6  A    between atoms: _12  and  _15
REMARK    7  A    between atoms: _15  and  _16
REMARK    8  A    between atoms: _18  and  _19
REMARK                            x       y       z     vdW  Elec       q    Type
REMARK                         _______ _______ _______ _____ _____    ______ ____
ROOT
ATOM      1  N   UNL     1     -13.067   2.625 -18.260  0.00  0.00    -0.163 NA
ATOM      2  H   UNL     1     -13.529   2.242 -19.086  0.00  0.00    +0.168 HD
ENDROOT
BRANCH   1   3
ATOM      3  N   UNL     1     -13.521   3.868 -18.006  0.00  0.00    -0.261 N 
ATOM      4  H   UNL     1     -14.531   3.974 -17.970  0.00  0.00    +0.168 HD
BRANCH   3   5
ATOM      5  C   UNL     1     -12.868   4.971 -18.598  0.00  0.00    +0.084 A 
ATOM      6  C   UNL     1     -12.812   5.068 -20.006  0.00  0.00    +0.142 A 
ATOM      7  C   UNL     1     -12.237   6.193 -20.605  0.00  0.00    +0.047 A 
ATOM      8  C   UNL     1     -11.729   7.229 -19.815  0.00  0.00    +0.004 A 
ATOM      9  C   UNL     1     -11.794   7.147 -18.427  0.00  0.00    +0.002 A 
ATOM     10  C   UNL     1     -12.365   6.026 -17.823  0.00  0.00    +0.028 A 
BRANCH   6  11
ATOM     11  O   UNL     1     -13.337   3.994 -20.688  0.00  0.00    -0.493 OA
ATOM     12  C   UNL     1     -14.404   4.261 -21.589  0.00  0.00    +0.277 C 
ENDBRANCH   6  11
ENDBRANCH   3   5
ENDBRANCH   1   3
BRANCH   1  13
ATOM     13  N   UNL     1     -13.343   1.944 -17.256  0.00  0.00    -0.261 N 
ATOM     14  H   UNL     1     -14.251   1.850 -16.888  0.00  0.00    +0.168 HD
BRANCH  13  15
ATOM     15  C   UNL     1     -12.201   1.321 -16.705  0.00  0.00    +0.084 A 
ATOM     16  C   UNL     1     -11.255   1.961 -15.881  0.00  0.00    +0.142 A 
ATOM     17  C   UNL     1     -10.193   1.243 -15.315  0.00  0.00    +0.047 A 
ATOM     18  C   UNL     1     -10.044  -0.115 -15.587  0.00  0.00    +0.004 A 
ATOM     19  C   UNL     1     -10.962  -0.763 -16.409  0.00  0.00    +0.002 A 
ATOM     20  C   UNL     1     -12.034  -0.050 -16.956  0.00  0.00    +0.028 A 
BRANCH  16  21
ATOM     21  O   UNL     1     -11.408   3.284 -15.545  0.00  0.00    -0.493 OA
ATOM     22  C   UNL     1     -10.197   4.005 -15.775  0.00  0.00    +0.277 C 
ENDBRANCH  16  21
ENDBRANCH  13  15
ENDBRANCH   1  13
TORSDOF 6
ENDMDL
MODEL 5
REMARK VINA RESULT:      -6.1      3.875      6.251
REMARK  Name = min_compound937.pdb
REMARK  8 active torsions:
REMARK  status: ('A' for Active; 'I' for Inactive)
REMARK    1  A    between atoms: _1  and  _2
REMARK    2  A    between atoms: _1  and  _10
REMARK    3  A    between atoms: _2  and  _17
REMARK    4  A    between atoms: _4  and  _17
REMARK    5  A    between atoms: _7  and  _18
REMARK    6  A    between atoms: _12  and  _15
REMARK    7  A    between atoms: _15  and  _16
REMARK    8  A    between atoms: _18  and  _19
REMARK                            x       y       z     vdW  Elec       q    Type
REMARK                         _______ _______ _______ _____ _____    ______ ____
ROOT
ATOM      1  N   UNL     1     -14.531   2.018 -15.956  0.00  0.00    -0.163 NA
ATOM      2  H   UNL     1     -14.130   1.544 -15.146  0.00  0.00    +0.168 HD
ENDROOT
BRANCH   1   3
ATOM      3  N   UNL     1     -14.793   3.307 -15.660  0.00  0.00    -0.261 N 
ATOM      4  H   UNL     1     -14.096   3.983 -15.962  0.00  0.00    +0.168 HD
BRANCH   3   5
ATOM      5  C   UNL     1     -15.364   3.621 -14.407  0.00  0.00    +0.084 A 
ATOM      6  C   UNL     1     -16.661   3.154 -14.102  0.00  0.00    +0.142 A 
ATOM      7  C   UNL     1     -17.208   3.391 -12.836  0.00  0.00    +0.047 A 
ATOM      8  C   UNL     1     -16.469   4.077 -11.868  0.00  0.00    +0.004 A 
ATOM      9  C   UNL     1     -15.184   4.528 -12.157  0.00  0.00    +0.002 A 
ATOM     10  C   UNL     1     -14.634   4.296 -13.418  0.00  0.00    +0.028 A 
BRANCH   6  11
ATOM     11  O   UNL     1     -17.302   2.493 -15.125  0.00  0.00    -0.493 OA
ATOM     12  C   UNL     1     -18.612   2.934 -15.459  0.00  0.00    +0.277 C 
ENDBRANCH   6  11
ENDBRANCH   3   5
ENDBRANCH   1   3
BRANCH   1  13
ATOM     13  N   UNL     1     -13.713   2.038 -16.894  0.00  0.00    -0.261 N 
ATOM     14  H   UNL     1     -13.904   2.420 -17.781  0.00  0.00    +0.168 HD
BRANCH  13  15
ATOM     15  C   UNL     1     -12.480   1.450 -16.537  0.00  0.00    +0.084 A 
ATOM     16  C   UNL     1     -11.447   2.107 -15.841  0.00  0.00    +0.142 A 
ATOM     17  C   UNL     1     -10.287   1.420 -15.461  0.00  0.00    +0.047 A 
ATOM     18  C   UNL     1     -10.129   0.076 -15.795  0.00  0.00    +0.004 A 
ATOM     19  C   UNL     1     -11.133  -0.587 -16.494  0.00  0.00    +0.002 A 
ATOM     20  C   UNL     1     -12.301   0.094 -16.854  0.00  0.00    +0.028 A 
BRANCH  16  21
ATOM     21  O   UNL     1     -11.599   3.413 -15.444  0.00  0.00    -0.493 OA
ATOM     22  C   UNL     1     -10.625   4.247 -16.074  0.00  0.00    +0.277 C 
ENDBRANCH  16  21
ENDBRANCH  13  15
ENDBRANCH   1  13
TORSDOF 6
ENDMDL
MODEL 6
REMARK VINA RESULT:      -6.1      1.364      5.824
REMARK  Name = min_compound937.pdb
REMARK  8 active torsions:
REMARK  status: ('A' for Active; 'I' for Inactive)
REMARK    1  A    between atoms: _1  and  _2
REMARK    2  A    between atoms: _1  and  _10
REMARK    3  A    between atoms: _2  and  _17
REMARK    4  A    between atoms: _4  and  _17
REMARK    5  A    between atoms: _7  and  _18
REMARK    6  A    between atoms: _12  and  _15
REMARK    7  A    between atoms: _15  and  _16
REMARK    8  A    between atoms: _18  and  _19
REMARK                            x       y       z     vdW  Elec       q    Type
REMARK                         _______ _______ _______ _____ _____    ______ ____
ROOT
ATOM      1  N   UNL     1     -13.352   2.397 -17.737  0.00  0.00    -0.163 NA
ATOM      2  H   UNL     1     -13.102   2.823 -16.845  0.00  0.00    +0.168 HD
ENDROOT
BRANCH   1   3
ATOM      3  N   UNL     1     -13.914   3.312 -18.552  0.00  0.00    -0.261 N 
ATOM      4  H   UNL     1     -14.215   2.973 -19.461  0.00  0.00    +0.168 HD
BRANCH   3   5
ATOM      5  C   UNL     1     -13.370   4.615 -18.597  0.00  0.00    +0.084 A 
ATOM      6  C   UNL     1     -13.434   5.432 -17.447  0.00  0.00    +0.142 A 
ATOM      7  C   UNL     1     -12.831   6.694 -17.453  0.00  0.00    +0.047 A 
ATOM      8  C   UNL     1     -12.154   7.144 -18.590  0.00  0.00    +0.004 A 
ATOM      9  C   UNL     1     -12.075   6.339 -19.723  0.00  0.00    +0.002 A 
ATOM     10  C   UNL     1     -12.675   5.079 -19.723  0.00  0.00    +0.028 A 
BRANCH   6  11
ATOM     11  O   UNL     1     -14.125   4.894 -16.384  0.00  0.00    -0.493 OA
ATOM     12  C   UNL     1     -15.174   5.679 -15.833  0.00  0.00    +0.277 C 
ENDBRANCH   6  11
ENDBRANCH   3   5
ENDBRANCH   1   3
BRANCH   1  13
ATOM     13  N   UNL     1     -12.331   1.993 -18.324  0.00  0.00    -0.261 N 
ATOM     14  H   UNL     1     -12.153   2.140 -19.281  0.00  0.00    +0.168 HD
BRANCH  13  15
ATOM     15  C   UNL     1     -11.459   1.299 -17.458  0.00  0.00    +0.084 A 
ATOM     16  C   UNL     1     -11.019   1.776 -16.207  0.00  0.00    +0.142 A 
ATOM     17  C   UNL     1     -10.214   0.984 -15.378  0.00  0.00    +0.047 A 
ATOM     18  C   UNL     1      -9.812  -0.282 -15.798  0.00  0.00    +0.004 A 
ATOM     19  C   UNL     1     -10.225  -0.767 -17.036  0.00  0.00    +0.002 A 
ATOM     20  C   UNL     1     -11.047   0.017 -17.853  0.00  0.00    +0.028 A 
BRANCH  16  21
ATOM     21  O   UNL     1     -11.448   2.994 -15.739  0.00  0.00    -0.493 OA
ATOM     22  C   UNL     1     -10.403   3.964 -15.828  0.00  0.00    +0.277 C 
ENDBRANCH  16  21
ENDBRANCH  13  15
ENDBRANCH   1  13
TORSDOF 6
ENDMDL
MODEL 7
REMARK VINA RESULT:      -6.1     13.319     15.132
REMARK  Name = min_compound937.pdb
REMARK  8 active torsions:
REMARK  status: ('A' for Active; 'I' for Inactive)
REMARK    1  A    between atoms: _1  and  _2
REMARK    2  A    between atoms: _1  and  _10
REMARK    3  A    between atoms: _2  and  _17
REMARK    4  A    between atoms: _4  and  _17
REMARK    5  A    between atoms: _7  and  _18
REMARK    6  A    between atoms: _12  and  _15
REMARK    7  A    between atoms: _15  and  _16
REMARK    8  A    between atoms: _18  and  _19
REMARK                            x       y       z     vdW  Elec       q    Type
REMARK                         _______ _______ _______ _____ _____    ______ ____
ROOT
ATOM      1  N   UNL     1     -14.810  -1.773  -5.324  0.00  0.00    -0.163 NA
ATOM      2  H   UNL     1     -14.942  -2.390  -6.126  0.00  0.00    +0.168 HD
ENDROOT
BRANCH   1   3
ATOM      3  N   UNL     1     -14.323  -2.467  -4.276  0.00  0.00    -0.261 N 
ATOM      4  H   UNL     1     -13.957  -3.391  -4.486  0.00  0.00    +0.168 HD
BRANCH   3   5
ATOM      5  C   UNL     1     -15.001  -2.406  -3.040  0.00  0.00    +0.084 A 
ATOM      6  C   UNL     1     -14.496  -3.130  -1.937  0.00  0.00    +0.142 A 
ATOM      7  C   UNL     1     -15.113  -3.017  -0.686  0.00  0.00    +0.047 A 
ATOM      8  C   UNL     1     -16.221  -2.180  -0.522  0.00  0.00    +0.004 A 
ATOM      9  C   UNL     1     -16.716  -1.454  -1.601  0.00  0.00    +0.002 A 
ATOM     10  C   UNL     1     -16.106  -1.563  -2.851  0.00  0.00    +0.028 A 
BRANCH   6  11
ATOM     11  O   UNL     1     -13.405  -3.924  -2.208  0.00  0.00    -0.493 OA
ATOM     12  C   UNL     1     -13.473  -5.280  -1.787  0.00  0.00    +0.277 C 
ENDBRANCH   6  11
ENDBRANCH   3   5
ENDBRANCH   1   3
BRANCH   1  13
ATOM     13  N   UNL     1     -13.961  -0.901  -5.585  0.00  0.00    -0.261 N 
ATOM     14  H   UNL     1     -13.133  -1.074  -6.090  0.00  0.00    +0.168 HD
BRANCH  13  15
ATOM     15  C   UNL     1     -14.323   0.364  -5.075  0.00  0.00    +0.084 A 
ATOM     16  C   UNL     1     -15.507   1.055  -5.401  0.00  0.00    +0.142 A 
ATOM     17  C   UNL     1     -15.822   2.273  -4.784  0.00  0.00    +0.047 A 
ATOM     18  C   UNL     1     -14.946   2.833  -3.856  0.00  0.00    +0.004 A 
ATOM     19  C   UNL     1     -13.766   2.172  -3.529  0.00  0.00    +0.002 A 
ATOM     20  C   UNL     1     -13.463   0.945  -4.129  0.00  0.00    +0.028 A 
BRANCH  16  21
ATOM     21  O   UNL     1     -16.418   0.500  -6.266  0.00  0.00    -0.493 OA
ATOM     22  C   UNL     1     -16.317   1.100  -7.558  0.00  0.00    +0.277 C 
ENDBRANCH  16  21
ENDBRANCH  13  15
ENDBRANCH   1  13
TORSDOF 6
ENDMDL
MODEL 8
REMARK VINA RESULT:      -5.9     13.280     15.950
REMARK  Name = min_compound937.pdb
REMARK  8 active torsions:
REMARK  status: ('A' for Active; 'I' for Inactive)
REMARK    1  A    between atoms: _1  and  _2
REMARK    2  A    between atoms: _1  and  _10
REMARK    3  A    between atoms: _2  and  _17
REMARK    4  A    between atoms: _4  and  _17
REMARK    5  A    between atoms: _7  and  _18
REMARK    6  A    between atoms: _12  and  _15
REMARK    7  A    between atoms: _15  and  _16
REMARK    8  A    between atoms: _18  and  _19
REMARK                            x       y       z     vdW  Elec       q    Type
REMARK                         _______ _______ _______ _____ _____    ______ ____
ROOT
ATOM      1  N   UNL     1     -14.543  -1.731  -4.203  0.00  0.00    -0.163 NA
ATOM      2  H   UNL     1     -13.801  -2.288  -3.778  0.00  0.00    +0.168 HD
ENDROOT
BRANCH   1   3
ATOM      3  N   UNL     1     -14.475  -1.810  -5.546  0.00  0.00    -0.261 N 
ATOM      4  H   UNL     1     -13.577  -2.089  -5.931  0.00  0.00    +0.168 HD
BRANCH   3   5
ATOM      5  C   UNL     1     -15.132  -0.831  -6.324  0.00  0.00    +0.084 A 
ATOM      6  C   UNL     1     -14.703   0.513  -6.252  0.00  0.00    +0.142 A 
ATOM      7  C   UNL     1     -15.293   1.478  -7.075  0.00  0.00    +0.047 A 
ATOM      8  C   UNL     1     -16.296   1.115  -7.978  0.00  0.00    +0.004 A 
ATOM      9  C   UNL     1     -16.713  -0.210  -8.065  0.00  0.00    +0.002 A 
ATOM     10  C   UNL     1     -16.130  -1.177  -7.246  0.00  0.00    +0.028 A 
BRANCH   6  11
ATOM     11  O   UNL     1     -13.713   0.763  -5.329  0.00  0.00    -0.493 OA
ATOM     12  C   UNL     1     -13.978   1.760  -4.351  0.00  0.00    +0.277 C 
ENDBRANCH   6  11
ENDBRANCH   3   5
ENDBRANCH   1   3
BRANCH   1  13
ATOM     13  N   UNL     1     -15.659  -2.183  -3.886  0.00  0.00    -0.261 N 
ATOM     14  H   UNL     1     -16.392  -2.332  -4.526  0.00  0.00    +0.168 HD
BRANCH  13  15
ATOM     15  C   UNL     1     -15.749  -2.457  -2.504  0.00  0.00    +0.084 A 
ATOM     16  C   UNL     1     -15.026  -3.463  -1.835  0.00  0.00    +0.142 A 
ATOM     17  C   UNL     1     -15.122  -3.613  -0.445  0.00  0.00    +0.047 A 
ATOM     18  C   UNL     1     -15.961  -2.779   0.292  0.00  0.00    +0.004 A 
ATOM     19  C   UNL     1     -16.693  -1.787  -0.353  0.00  0.00    +0.002 A 
ATOM     20  C   UNL     1     -16.580  -1.625  -1.738  0.00  0.00    +0.028 A 
BRANCH  16  21
ATOM     21  O   UNL     1     -14.145  -4.260  -2.523  0.00  0.00    -0.493 OA
ATOM     22  C   UNL     1     -13.338  -5.017  -1.619  0.00  0.00    +0.277 C 
ENDBRANCH  16  21
ENDBRANCH  13  15
ENDBRANCH   1  13
TORSDOF 6
ENDMDL
MODEL 9
REMARK VINA RESULT:      -5.9     13.049     15.374
REMARK  Name = min_compound937.pdb
REMARK  8 active torsions:
REMARK  status: ('A' for Active; 'I' for Inactive)
REMARK    1  A    between atoms: _1  and  _2
REMARK    2  A    between atoms: _1  and  _10
REMARK    3  A    between atoms: _2  and  _17
REMARK    4  A    between atoms: _4  and  _17
REMARK    5  A    between atoms: _7  and  _18
REMARK    6  A    between atoms: _12  and  _15
REMARK    7  A    between atoms: _15  and  _16
REMARK    8  A    between atoms: _18  and  _19
REMARK                            x       y       z     vdW  Elec       q    Type
REMARK                         _______ _______ _______ _____ _____    ______ ____
ROOT
ATOM      1  N   UNL     1     -14.925  -2.205  -4.420  0.00  0.00    -0.163 NA
ATOM      2  H   UNL     1     -15.942  -2.166  -4.490  0.00  0.00    +0.168 HD
ENDROOT
BRANCH   1   3
ATOM      3  N   UNL     1     -14.360  -1.689  -5.529  0.00  0.00    -0.261 N 
ATOM      4  H   UNL     1     -13.379  -1.436  -5.452  0.00  0.00    +0.168 HD
BRANCH   3   5
ATOM      5  C   UNL     1     -15.105  -0.787  -6.321  0.00  0.00    +0.084 A 
ATOM      6  C   UNL     1     -14.840   0.597  -6.228  0.00  0.00    +0.142 A 
ATOM      7  C   UNL     1     -15.515   1.494  -7.063  0.00  0.00    +0.047 A 
ATOM      8  C   UNL     1     -16.442   1.023  -7.999  0.00  0.00    +0.004 A 
ATOM      9  C   UNL     1     -16.697  -0.341  -8.105  0.00  0.00    +0.002 A 
ATOM     10  C   UNL     1     -16.028  -1.241  -7.275  0.00  0.00    +0.028 A 
BRANCH   6  11
ATOM     11  O   UNL     1     -13.914   0.954  -5.275  0.00  0.00    -0.493 OA
ATOM     12  C   UNL     1     -14.322   1.909  -4.304  0.00  0.00    +0.277 C 
ENDBRANCH   6  11
ENDBRANCH   3   5
ENDBRANCH   1   3
BRANCH   1  13
ATOM     13  N   UNL     1     -14.530  -1.502  -3.471  0.00  0.00    -0.261 N 
ATOM     14  H   UNL     1     -13.667  -1.027  -3.462  0.00  0.00    +0.168 HD
BRANCH  13  15
ATOM     15  C   UNL     1     -15.463  -1.463  -2.413  0.00  0.00    +0.084 A 
ATOM     16  C   UNL     1     -16.741  -0.875  -2.487  0.00  0.00    +0.142 A 
ATOM     17  C   UNL     1     -17.632  -0.953  -1.408  0.00  0.00    +0.047 A 
ATOM     18  C   UNL     1     -17.250  -1.592  -0.231  0.00  0.00    +0.004 A 
ATOM     19  C   UNL     1     -15.987  -2.169  -0.134  0.00  0.00    +0.002 A 
ATOM     20  C   UNL     1     -15.106  -2.110  -1.219  0.00  0.00    +0.028 A 
BRANCH  16  21
ATOM     21  O   UNL     1     -17.169  -0.291  -3.654  0.00  0.00    -0.493 OA
ATOM     22  C   UNL     1     -18.282  -1.005  -4.195  0.00  0.00    +0.277 C 
ENDBRANCH  16  21
ENDBRANCH  13  15
ENDBRANCH   1  13
TORSDOF 6
ENDMDL
