MODEL 1
REMARK VINA RESULT:      -6.3      0.000      0.000
REMARK  Name = min_compound971.pdb
REMARK  2 active torsions:
REMARK  status: ('A' for Active; 'I' for Inactive)
REMARK    1  A    between atoms: _7  and  _17
REMARK    2  A    between atoms: _9  and  _20
REMARK                            x       y       z     vdW  Elec       q    Type
REMARK                         _______ _______ _______ _____ _____    ______ ____
ROOT
ATOM      1  C   UNL     1     -15.192   2.485 -16.160  0.00  0.00    +0.137 C 
ATOM      2  N   UNL     1     -13.769   2.689 -16.299  0.00  0.00    -0.223 N 
ATOM      3  C   UNL     1     -13.515   4.007 -16.743  0.00  0.00    +0.317 C 
ATOM      4  O   UNL     1     -12.452   4.424 -17.177  0.00  0.00    -0.252 OA
ATOM      5  N   UNL     1     -14.723   4.724 -16.609  0.00  0.00    -0.231 N 
ATOM      6  C   UNL     1     -14.903   6.068 -16.861  0.00  0.00    +0.191 A 
ATOM      7  N   UNL     1     -16.042   6.699 -16.649  0.00  0.00    -0.126 NA
ATOM      8  N   UNL     1     -15.972   8.041 -16.962  0.00  0.00    -0.148 NA
ATOM      9  C   UNL     1     -14.778   8.370 -17.404  0.00  0.00    +0.183 A 
ATOM     10  S   UNL     1     -13.665   7.074 -17.472  0.00  0.00    -0.038 S 
ATOM     11  C   UNL     1     -12.863   1.647 -16.353  0.00  0.00    +0.211 A 
ATOM     12  N   UNL     1     -11.476   1.710 -16.322  0.00  0.00    -0.257 N 
ATOM     13  C   UNL     1     -10.659   2.818 -15.877  0.00  0.00    +0.158 C 
ATOM     14  C   UNL     1     -11.030   0.427 -16.545  0.00  0.00    +0.369 A 
ATOM     15  C   UNL     1     -12.136  -0.376 -16.542  0.00  0.00    +0.219 A 
ATOM     16  N   UNL     1     -13.261   0.386 -16.389  0.00  0.00    -0.215 NA
ATOM     17  C   UNL     1     -15.752   3.886 -16.044  0.00  0.00    +0.137 C 
ENDROOT
BRANCH  14  18
ATOM     18  N   UNL     1      -9.671   0.044 -16.697  0.00  0.00    +0.100 N 
ATOM     19  O   UNL     1      -9.061   0.472 -17.682  0.00  0.00    +0.043 OA
ATOM     20  O   UNL     1      -9.212  -0.707 -15.829  0.00  0.00    -0.575 OA
ENDBRANCH  14  18
TORSDOF 1
ENDMDL
MODEL 2
REMARK VINA RESULT:      -6.2      2.810      7.130
REMARK  Name = min_compound971.pdb
REMARK  2 active torsions:
REMARK  status: ('A' for Active; 'I' for Inactive)
REMARK    1  A    between atoms: _7  and  _17
REMARK    2  A    between atoms: _9  and  _20
REMARK                            x       y       z     vdW  Elec       q    Type
REMARK                         _______ _______ _______ _____ _____    ______ ____
ROOT
ATOM      1  C   UNL     1     -10.886   4.971 -16.477  0.00  0.00    +0.137 C 
ATOM      2  N   UNL     1     -12.237   4.616 -16.840  0.00  0.00    -0.223 N 
ATOM      3  C   UNL     1     -12.347   3.211 -16.966  0.00  0.00    +0.317 C 
ATOM      4  O   UNL     1     -13.276   2.609 -17.480  0.00  0.00    -0.252 OA
ATOM      5  N   UNL     1     -11.173   2.659 -16.411  0.00  0.00    -0.231 N 
ATOM      6  C   UNL     1     -10.898   1.316 -16.262  0.00  0.00    +0.191 A 
ATOM      7  N   UNL     1      -9.812   0.859 -15.668  0.00  0.00    -0.126 NA
ATOM      8  N   UNL     1      -9.769  -0.520 -15.627  0.00  0.00    -0.148 NA
ATOM      9  C   UNL     1     -10.827  -1.051 -16.198  0.00  0.00    +0.183 A 
ATOM     10  S   UNL     1     -11.942   0.085 -16.824  0.00  0.00    -0.038 S 
ATOM     11  C   UNL     1     -13.144   5.528 -17.345  0.00  0.00    +0.211 A 
ATOM     12  N   UNL     1     -14.502   5.354 -17.577  0.00  0.00    -0.257 N 
ATOM     13  C   UNL     1     -15.359   4.324 -17.032  0.00  0.00    +0.158 C 
ATOM     14  C   UNL     1     -14.932   6.497 -18.212  0.00  0.00    +0.369 A 
ATOM     15  C   UNL     1     -13.879   7.369 -18.197  0.00  0.00    +0.219 A 
ATOM     16  N   UNL     1     -12.789   6.770 -17.628  0.00  0.00    -0.215 NA
ATOM     17  C   UNL     1     -10.319   3.697 -15.889  0.00  0.00    +0.137 C 
ENDROOT
BRANCH  14  18
ATOM     18  N   UNL     1     -16.237   6.710 -18.728  0.00  0.00    +0.100 N 
ATOM     19  O   UNL     1     -17.039   7.330 -18.020  0.00  0.00    +0.043 OA
ATOM     20  O   UNL     1     -16.469   6.241 -19.847  0.00  0.00    -0.575 OA
ENDBRANCH  14  18
TORSDOF 1
ENDMDL
MODEL 3
REMARK VINA RESULT:      -6.0      2.927      7.028
REMARK  Name = min_compound971.pdb
REMARK  2 active torsions:
REMARK  status: ('A' for Active; 'I' for Inactive)
REMARK    1  A    between atoms: _7  and  _17
REMARK    2  A    between atoms: _9  and  _20
REMARK                            x       y       z     vdW  Elec       q    Type
REMARK                         _______ _______ _______ _____ _____    ______ ____
ROOT
ATOM      1  C   UNL     1     -11.734   4.937 -17.344  0.00  0.00    +0.137 C 
ATOM      2  N   UNL     1     -12.882   4.347 -16.697  0.00  0.00    -0.223 N 
ATOM      3  C   UNL     1     -12.759   2.938 -16.696  0.00  0.00    +0.317 C 
ATOM      4  O   UNL     1     -13.649   2.142 -16.442  0.00  0.00    -0.252 OA
ATOM      5  N   UNL     1     -11.430   2.643 -17.068  0.00  0.00    -0.231 N 
ATOM      6  C   UNL     1     -10.860   1.388 -17.124  0.00  0.00    +0.191 A 
ATOM      7  N   UNL     1      -9.589   1.181 -17.410  0.00  0.00    -0.126 NA
ATOM      8  N   UNL     1      -9.251  -0.157 -17.389  0.00  0.00    -0.148 NA
ATOM      9  C   UNL     1     -10.287  -0.909 -17.091  0.00  0.00    +0.183 A 
ATOM     10  S   UNL     1     -11.737  -0.045 -16.819  0.00  0.00    -0.038 S 
ATOM     11  C   UNL     1     -14.056   5.038 -16.472  0.00  0.00    +0.211 A 
ATOM     12  N   UNL     1     -15.159   4.643 -15.727  0.00  0.00    -0.257 N 
ATOM     13  C   UNL     1     -15.214   3.594 -14.732  0.00  0.00    +0.158 C 
ATOM     14  C   UNL     1     -16.120   5.609 -15.924  0.00  0.00    +0.369 A 
ATOM     15  C   UNL     1     -15.523   6.613 -16.634  0.00  0.00    +0.219 A 
ATOM     16  N   UNL     1     -14.237   6.263 -16.939  0.00  0.00    -0.215 NA
ATOM     17  C   UNL     1     -10.677   3.857 -17.273  0.00  0.00    +0.137 C 
ENDROOT
BRANCH  14  18
ATOM     18  N   UNL     1     -17.450   5.558 -15.429  0.00  0.00    +0.100 N 
ATOM     19  O   UNL     1     -18.276   4.898 -16.069  0.00  0.00    +0.043 OA
ATOM     20  O   UNL     1     -17.677   6.198 -14.396  0.00  0.00    -0.575 OA
ENDBRANCH  14  18
TORSDOF 1
ENDMDL
MODEL 4
REMARK VINA RESULT:      -5.9      2.245      2.859
REMARK  Name = min_compound971.pdb
REMARK  2 active torsions:
REMARK  status: ('A' for Active; 'I' for Inactive)
REMARK    1  A    between atoms: _7  and  _17
REMARK    2  A    between atoms: _9  and  _20
REMARK                            x       y       z     vdW  Elec       q    Type
REMARK                         _______ _______ _______ _____ _____    ______ ____
ROOT
ATOM      1  C   UNL     1     -11.579   5.503 -17.029  0.00  0.00    +0.137 C 
ATOM      2  N   UNL     1     -12.067   4.209 -17.446  0.00  0.00    -0.223 N 
ATOM      3  C   UNL     1     -13.357   4.343 -18.010  0.00  0.00    +0.317 C 
ATOM      4  O   UNL     1     -14.133   3.430 -18.243  0.00  0.00    -0.252 OA
ATOM      5  N   UNL     1     -13.571   5.721 -18.220  0.00  0.00    -0.231 N 
ATOM      6  C   UNL     1     -14.674   6.291 -18.820  0.00  0.00    +0.191 A 
ATOM      7  N   UNL     1     -14.786   7.584 -19.054  0.00  0.00    -0.126 NA
ATOM      8  N   UNL     1     -15.973   7.911 -19.678  0.00  0.00    -0.148 NA
ATOM      9  C   UNL     1     -16.715   6.846 -19.887  0.00  0.00    +0.183 A 
ATOM     10  S   UNL     1     -16.024   5.380 -19.339  0.00  0.00    -0.038 S 
ATOM     11  C   UNL     1     -11.513   3.022 -17.010  0.00  0.00    +0.211 A 
ATOM     12  N   UNL     1     -11.778   1.733 -17.454  0.00  0.00    -0.257 N 
ATOM     13  C   UNL     1     -12.417   1.348 -18.693  0.00  0.00    +0.158 C 
ATOM     14  C   UNL     1     -11.085   0.889 -16.616  0.00  0.00    +0.369 A 
ATOM     15  C   UNL     1     -10.314   1.683 -15.815  0.00  0.00    +0.219 A 
ATOM     16  N   UNL     1     -10.562   3.000 -16.090  0.00  0.00    -0.215 NA
ATOM     17  C   UNL     1     -12.409   6.482 -17.831  0.00  0.00    +0.137 C 
ENDROOT
BRANCH  14  18
ATOM     18  N   UNL     1     -11.149  -0.530 -16.641  0.00  0.00    +0.100 N 
ATOM     19  O   UNL     1     -10.117  -1.145 -16.932  0.00  0.00    +0.043 OA
ATOM     20  O   UNL     1     -12.247  -1.035 -16.382  0.00  0.00    -0.575 OA
ENDBRANCH  14  18
TORSDOF 1
ENDMDL
MODEL 5
REMARK VINA RESULT:      -5.8      2.120      3.069
REMARK  Name = min_compound971.pdb
REMARK  2 active torsions:
REMARK  status: ('A' for Active; 'I' for Inactive)
REMARK    1  A    between atoms: _7  and  _17
REMARK    2  A    between atoms: _9  and  _20
REMARK                            x       y       z     vdW  Elec       q    Type
REMARK                         _______ _______ _______ _____ _____    ______ ____
ROOT
ATOM      1  C   UNL     1     -13.245   5.910 -17.282  0.00  0.00    +0.137 C 
ATOM      2  N   UNL     1     -13.182   4.550 -16.803  0.00  0.00    -0.223 N 
ATOM      3  C   UNL     1     -14.261   4.301 -15.923  0.00  0.00    +0.317 C 
ATOM      4  O   UNL     1     -14.368   3.342 -15.175  0.00  0.00    -0.252 OA
ATOM      5  N   UNL     1     -15.159   5.381 -16.062  0.00  0.00    -0.231 N 
ATOM      6  C   UNL     1     -16.383   5.506 -15.439  0.00  0.00    +0.191 A 
ATOM      7  N   UNL     1     -17.212   6.507 -15.665  0.00  0.00    -0.126 NA
ATOM      8  N   UNL     1     -18.379   6.404 -14.934  0.00  0.00    -0.148 NA
ATOM      9  C   UNL     1     -18.381   5.327 -14.180  0.00  0.00    +0.183 A 
ATOM     10  S   UNL     1     -16.969   4.370 -14.305  0.00  0.00    -0.038 S 
ATOM     11  C   UNL     1     -12.046   3.770 -16.901  0.00  0.00    +0.211 A 
ATOM     12  N   UNL     1     -11.905   2.415 -16.632  0.00  0.00    -0.257 N 
ATOM     13  C   UNL     1     -12.957   1.429 -16.528  0.00  0.00    +0.158 C 
ATOM     14  C   UNL     1     -10.560   2.141 -16.742  0.00  0.00    +0.369 A 
ATOM     15  C   UNL     1      -9.970   3.276 -17.222  0.00  0.00    +0.219 A 
ATOM     16  N   UNL     1     -10.904   4.267 -17.348  0.00  0.00    -0.215 NA
ATOM     17  C   UNL     1     -14.687   6.310 -17.059  0.00  0.00    +0.137 C 
ENDROOT
BRANCH  14  18
ATOM     18  N   UNL     1      -9.949   0.893 -16.449  0.00  0.00    +0.100 N 
ATOM     19  O   UNL     1      -9.875   0.554 -15.263  0.00  0.00    +0.043 OA
ATOM     20  O   UNL     1      -9.524   0.250 -17.416  0.00  0.00    -0.575 OA
ENDBRANCH  14  18
TORSDOF 1
ENDMDL
MODEL 6
REMARK VINA RESULT:      -5.8      3.246      4.348
REMARK  Name = min_compound971.pdb
REMARK  2 active torsions:
REMARK  status: ('A' for Active; 'I' for Inactive)
REMARK    1  A    between atoms: _7  and  _17
REMARK    2  A    between atoms: _9  and  _20
REMARK                            x       y       z     vdW  Elec       q    Type
REMARK                         _______ _______ _______ _____ _____    ______ ____
ROOT
ATOM      1  C   UNL     1     -14.951   7.009 -16.284  0.00  0.00    +0.137 C 
ATOM      2  N   UNL     1     -14.753   5.614 -15.967  0.00  0.00    -0.223 N 
ATOM      3  C   UNL     1     -15.241   5.345 -14.667  0.00  0.00    +0.317 C 
ATOM      4  O   UNL     1     -15.019   4.337 -14.014  0.00  0.00    -0.252 OA
ATOM      5  N   UNL     1     -15.998   6.468 -14.273  0.00  0.00    -0.231 N 
ATOM      6  C   UNL     1     -16.713   6.597 -13.101  0.00  0.00    +0.191 A 
ATOM      7  N   UNL     1     -17.463   7.646 -12.821  0.00  0.00    -0.126 NA
ATOM      8  N   UNL     1     -18.092   7.537 -11.597  0.00  0.00    -0.148 NA
ATOM      9  C   UNL     1     -17.787   6.406 -10.999  0.00  0.00    +0.183 A 
ATOM     10  S   UNL     1     -16.717   5.404 -11.879  0.00  0.00    -0.038 S 
ATOM     11  C   UNL     1     -13.892   4.797 -16.673  0.00  0.00    +0.211 A 
ATOM     12  N   UNL     1     -13.735   3.421 -16.575  0.00  0.00    -0.257 N 
ATOM     13  C   UNL     1     -14.655   2.474 -15.984  0.00  0.00    +0.158 C 
ATOM     14  C   UNL     1     -12.664   3.099 -17.377  0.00  0.00    +0.369 A 
ATOM     15  C   UNL     1     -12.320   4.242 -18.044  0.00  0.00    +0.219 A 
ATOM     16  N   UNL     1     -13.108   5.278 -17.624  0.00  0.00    -0.215 NA
ATOM     17  C   UNL     1     -16.037   7.451 -15.329  0.00  0.00    +0.137 C 
ENDROOT
BRANCH  14  18
ATOM     18  N   UNL     1     -12.085   1.808 -17.499  0.00  0.00    +0.100 N 
ATOM     19  O   UNL     1     -11.409   1.391 -16.552  0.00  0.00    +0.043 OA
ATOM     20  O   UNL     1     -12.297   1.209 -18.559  0.00  0.00    -0.575 OA
ENDBRANCH  14  18
TORSDOF 1
ENDMDL
MODEL 7
REMARK VINA RESULT:      -5.7      2.372      3.101
REMARK  Name = min_compound971.pdb
REMARK  2 active torsions:
REMARK  status: ('A' for Active; 'I' for Inactive)
REMARK    1  A    between atoms: _7  and  _17
REMARK    2  A    between atoms: _9  and  _20
REMARK                            x       y       z     vdW  Elec       q    Type
REMARK                         _______ _______ _______ _____ _____    ______ ____
ROOT
ATOM      1  C   UNL     1     -15.529   4.556 -13.976  0.00  0.00    +0.137 C 
ATOM      2  N   UNL     1     -14.732   4.665 -15.175  0.00  0.00    -0.223 N 
ATOM      3  C   UNL     1     -14.928   5.935 -15.767  0.00  0.00    +0.317 C 
ATOM      4  O   UNL     1     -14.591   6.258 -16.895  0.00  0.00    -0.252 OA
ATOM      5  N   UNL     1     -15.604   6.729 -14.817  0.00  0.00    -0.231 N 
ATOM      6  C   UNL     1     -15.930   8.062 -14.955  0.00  0.00    +0.191 A 
ATOM      7  N   UNL     1     -16.500   8.772 -14.000  0.00  0.00    -0.126 NA
ATOM      8  N   UNL     1     -16.713  10.085 -14.370  0.00  0.00    -0.148 NA
ATOM      9  C   UNL     1     -16.297  10.312 -15.596  0.00  0.00    +0.183 A 
ATOM     10  S   UNL     1     -15.623   8.951 -16.381  0.00  0.00    -0.038 S 
ATOM     11  C   UNL     1     -14.183   3.571 -15.814  0.00  0.00    +0.211 A 
ATOM     12  N   UNL     1     -13.276   3.553 -16.866  0.00  0.00    -0.257 N 
ATOM     13  C   UNL     1     -12.427   4.637 -17.308  0.00  0.00    +0.158 C 
ATOM     14  C   UNL     1     -13.147   2.234 -17.238  0.00  0.00    +0.369 A 
ATOM     15  C   UNL     1     -13.840   1.500 -16.316  0.00  0.00    +0.219 A 
ATOM     16  N   UNL     1     -14.449   2.336 -15.421  0.00  0.00    -0.215 NA
ATOM     17  C   UNL     1     -15.814   5.992 -13.594  0.00  0.00    +0.137 C 
ENDROOT
BRANCH  14  18
ATOM     18  N   UNL     1     -12.393   1.762 -18.345  0.00  0.00    +0.100 N 
ATOM     19  O   UNL     1     -11.265   1.311 -18.120  0.00  0.00    +0.043 OA
ATOM     20  O   UNL     1     -12.929   1.855 -19.455  0.00  0.00    -0.575 OA
ENDBRANCH  14  18
TORSDOF 1
ENDMDL
MODEL 8
REMARK VINA RESULT:      -5.6      9.266      9.866
REMARK  Name = min_compound971.pdb
REMARK  2 active torsions:
REMARK  status: ('A' for Active; 'I' for Inactive)
REMARK    1  A    between atoms: _7  and  _17
REMARK    2  A    between atoms: _9  and  _20
REMARK                            x       y       z     vdW  Elec       q    Type
REMARK                         _______ _______ _______ _____ _____    ______ ____
ROOT
ATOM      1  C   UNL     1     -18.063   4.057  -6.715  0.00  0.00    +0.137 C 
ATOM      2  N   UNL     1     -16.995   3.155  -7.078  0.00  0.00    -0.223 N 
ATOM      3  C   UNL     1     -16.592   3.403  -8.411  0.00  0.00    +0.317 C 
ATOM      4  O   UNL     1     -15.886   2.675  -9.091  0.00  0.00    -0.252 OA
ATOM      5  N   UNL     1     -17.181   4.625  -8.796  0.00  0.00    -0.231 N 
ATOM      6  C   UNL     1     -16.992   5.277  -9.997  0.00  0.00    +0.191 A 
ATOM      7  N   UNL     1     -17.515   6.456 -10.272  0.00  0.00    -0.126 NA
ATOM      8  N   UNL     1     -17.170   6.909 -11.530  0.00  0.00    -0.148 NA
ATOM      9  C   UNL     1     -16.400   6.047 -12.157  0.00  0.00    +0.183 A 
ATOM     10  S   UNL     1     -16.047   4.631 -11.265  0.00  0.00    -0.038 S 
ATOM     11  C   UNL     1     -16.702   2.011  -6.362  0.00  0.00    +0.211 A 
ATOM     12  N   UNL     1     -15.615   1.159  -6.508  0.00  0.00    -0.257 N 
ATOM     13  C   UNL     1     -14.367   1.438  -7.182  0.00  0.00    +0.158 C 
ATOM     14  C   UNL     1     -15.847   0.094  -5.666  0.00  0.00    +0.369 A 
ATOM     15  C   UNL     1     -16.959   0.411  -4.937  0.00  0.00    +0.219 A 
ATOM     16  N   UNL     1     -17.460   1.613  -5.354  0.00  0.00    -0.215 NA
ATOM     17  C   UNL     1     -17.935   5.193  -7.705  0.00  0.00    +0.137 C 
ENDROOT
BRANCH  14  18
ATOM     18  N   UNL     1     -15.038  -1.069  -5.567  0.00  0.00    +0.100 N 
ATOM     19  O   UNL     1     -14.995  -1.822  -6.546  0.00  0.00    +0.043 OA
ATOM     20  O   UNL     1     -14.451  -1.240  -4.494  0.00  0.00    -0.575 OA
ENDBRANCH  14  18
TORSDOF 1
ENDMDL
MODEL 9
REMARK VINA RESULT:      -5.5     11.664     13.293
REMARK  Name = min_compound971.pdb
REMARK  2 active torsions:
REMARK  status: ('A' for Active; 'I' for Inactive)
REMARK    1  A    between atoms: _7  and  _17
REMARK    2  A    between atoms: _9  and  _20
REMARK                            x       y       z     vdW  Elec       q    Type
REMARK                         _______ _______ _______ _____ _____    ______ ____
ROOT
ATOM      1  C   UNL     1     -14.155   0.774  -6.290  0.00  0.00    +0.137 C 
ATOM      2  N   UNL     1     -15.534   1.193  -6.205  0.00  0.00    -0.223 N 
ATOM      3  C   UNL     1     -16.177   0.511  -5.145  0.00  0.00    +0.317 C 
ATOM      4  O   UNL     1     -17.381   0.458  -4.954  0.00  0.00    -0.252 OA
ATOM      5  N   UNL     1     -15.163  -0.109  -4.384  0.00  0.00    -0.231 N 
ATOM      6  C   UNL     1     -15.343  -0.819  -3.215  0.00  0.00    +0.191 A 
ATOM      7  N   UNL     1     -14.346  -1.315  -2.507  0.00  0.00    -0.126 NA
ATOM      8  N   UNL     1     -14.776  -1.971  -1.371  0.00  0.00    -0.148 NA
ATOM      9  C   UNL     1     -16.087  -1.947  -1.270  0.00  0.00    +0.183 A 
ATOM     10  S   UNL     1     -16.883  -1.131  -2.544  0.00  0.00    -0.038 S 
ATOM     11  C   UNL     1     -16.184   1.854  -7.229  0.00  0.00    +0.211 A 
ATOM     12  N   UNL     1     -17.440   2.445  -7.212  0.00  0.00    -0.257 N 
ATOM     13  C   UNL     1     -18.215   2.822  -6.050  0.00  0.00    +0.158 C 
ATOM     14  C   UNL     1     -17.694   2.843  -8.505  0.00  0.00    +0.369 A 
ATOM     15  C   UNL     1     -16.542   2.631  -9.210  0.00  0.00    +0.219 A 
ATOM     16  N   UNL     1     -15.605   2.048  -8.402  0.00  0.00    -0.215 NA
ATOM     17  C   UNL     1     -13.861   0.201  -4.921  0.00  0.00    +0.137 C 
ENDROOT
BRANCH  14  18
ATOM     18  N   UNL     1     -18.912   3.407  -8.968  0.00  0.00    +0.100 N 
ATOM     19  O   UNL     1     -19.823   2.630  -9.275  0.00  0.00    +0.043 OA
ATOM     20  O   UNL     1     -18.955   4.639  -9.042  0.00  0.00    -0.575 OA
ENDBRANCH  14  18
TORSDOF 1
ENDMDL
