MODEL 1
REMARK VINA RESULT:      -7.2      0.000      0.000
REMARK  Name = min_compound986.pdb
REMARK  4 active torsions:
REMARK  status: ('A' for Active; 'I' for Inactive)
REMARK    1  A    between atoms: _3  and  _16
REMARK    2  A    between atoms: _9  and  _17
REMARK    3  A    between atoms: _14  and  _21
REMARK    4  A    between atoms: _15  and  _18
REMARK                            x       y       z     vdW  Elec       q    Type
REMARK                         _______ _______ _______ _____ _____    ______ ____
ROOT
ATOM      1  C   UNL     1     -13.990   7.556 -17.506  0.00  0.00    +0.002 A 
ATOM      2  C   UNL     1     -12.818   6.806 -17.413  0.00  0.00    +0.026 A 
ATOM      3  C   UNL     1     -12.930   5.430 -17.150  0.00  0.00    +0.050 A 
ATOM      4  N   UNL     1     -11.955   4.464 -16.946  0.00  0.00    -0.342 N 
ATOM      5  C   UNL     1     -10.590   4.819 -16.623  0.00  0.00    +0.149 C 
ATOM      6  C   UNL     1     -12.502   3.185 -16.874  0.00  0.00    +0.061 A 
ATOM      7  C   UNL     1     -11.909   1.845 -16.854  0.00  0.00    +0.051 A 
ATOM      8  C   UNL     1     -10.537   1.551 -17.232  0.00  0.00    +0.127 A 
ATOM      9  C   UNL     1     -10.167   0.210 -17.030  0.00  0.00    +0.049 A 
ATOM     10  C   UNL     1     -11.031  -0.793 -16.553  0.00  0.00    +0.049 A 
ATOM     11  C   UNL     1     -12.381  -0.585 -16.252  0.00  0.00    +0.125 A 
ATOM     12  C   UNL     1     -12.811   0.772 -16.442  0.00  0.00    +0.029 A 
ATOM     13  C   UNL     1     -14.168   1.065 -16.239  0.00  0.00    +0.013 A 
ATOM     14  C   UNL     1     -14.716   2.331 -16.421  0.00  0.00    +0.011 A 
ATOM     15  C   UNL     1     -13.879   3.411 -16.733  0.00  0.00    +0.009 A 
ATOM     16  C   UNL     1     -14.157   4.802 -16.981  0.00  0.00    +0.011 A 
ATOM     17  C   UNL     1     -15.351   5.573 -17.069  0.00  0.00    -0.041 A 
ATOM     18  C   UNL     1     -16.693   4.919 -16.918  0.00  0.00    +0.044 C 
ATOM     19  C   UNL     1     -15.232   6.956 -17.335  0.00  0.00    +0.004 A 
ENDROOT
BRANCH  11  20
ATOM     20  O   UNL     1     -13.115  -1.567 -15.851  0.00  0.00    -0.506 OA
ATOM     21  H   UNL     1     -12.810  -2.130 -15.167  0.00  0.00    +0.292 HD
ENDBRANCH  11  20
BRANCH   8  22
ATOM     22  O   UNL     1      -9.682   2.354 -17.756  0.00  0.00    -0.506 OA
ATOM     23  H   UNL     1      -9.128   2.059 -18.453  0.00  0.00    +0.292 HD
ENDBRANCH   8  22
TORSDOF 2
ENDMDL
MODEL 2
REMARK VINA RESULT:      -7.2     10.271     11.141
REMARK  Name = min_compound986.pdb
REMARK  4 active torsions:
REMARK  status: ('A' for Active; 'I' for Inactive)
REMARK    1  A    between atoms: _3  and  _16
REMARK    2  A    between atoms: _9  and  _17
REMARK    3  A    between atoms: _14  and  _21
REMARK    4  A    between atoms: _15  and  _18
REMARK                            x       y       z     vdW  Elec       q    Type
REMARK                         _______ _______ _______ _____ _____    ______ ____
ROOT
ATOM      1  C   UNL     1     -18.651   6.162  -8.159  0.00  0.00    +0.002 A 
ATOM      2  C   UNL     1     -18.115   5.725  -6.949  0.00  0.00    +0.026 A 
ATOM      3  C   UNL     1     -17.561   4.433  -6.896  0.00  0.00    +0.050 A 
ATOM      4  N   UNL     1     -17.023   3.721  -5.834  0.00  0.00    -0.342 N 
ATOM      5  C   UNL     1     -17.271   4.102  -4.459  0.00  0.00    +0.149 C 
ATOM      6  C   UNL     1     -16.440   2.528  -6.254  0.00  0.00    +0.061 A 
ATOM      7  C   UNL     1     -15.600   1.535  -5.580  0.00  0.00    +0.051 A 
ATOM      8  C   UNL     1     -14.912   1.763  -4.320  0.00  0.00    +0.127 A 
ATOM      9  C   UNL     1     -14.254   0.627  -3.818  0.00  0.00    +0.049 A 
ATOM     10  C   UNL     1     -14.204  -0.620  -4.469  0.00  0.00    +0.049 A 
ATOM     11  C   UNL     1     -14.777  -0.873  -5.720  0.00  0.00    +0.125 A 
ATOM     12  C   UNL     1     -15.464   0.258  -6.278  0.00  0.00    +0.029 A 
ATOM     13  C   UNL     1     -16.009   0.126  -7.565  0.00  0.00    +0.013 A 
ATOM     14  C   UNL     1     -16.668   1.156  -8.229  0.00  0.00    +0.011 A 
ATOM     15  C   UNL     1     -16.899   2.371  -7.571  0.00  0.00    +0.009 A 
ATOM     16  C   UNL     1     -17.533   3.590  -7.999  0.00  0.00    +0.011 A 
ATOM     17  C   UNL     1     -18.089   4.038  -9.230  0.00  0.00    -0.041 A 
ATOM     18  C   UNL     1     -18.050   3.161 -10.448  0.00  0.00    +0.044 C 
ATOM     19  C   UNL     1     -18.643   5.337  -9.278  0.00  0.00    +0.004 A 
ENDROOT
BRANCH  11  20
ATOM     20  O   UNL     1     -14.658  -2.036  -6.264  0.00  0.00    -0.506 OA
ATOM     21  H   UNL     1     -13.896  -2.240  -6.771  0.00  0.00    +0.292 HD
ENDBRANCH  11  20
BRANCH   8  22
ATOM     22  O   UNL     1     -14.811   2.870  -3.675  0.00  0.00    -0.506 OA
ATOM     23  H   UNL     1     -14.161   2.965  -3.007  0.00  0.00    +0.292 HD
ENDBRANCH   8  22
TORSDOF 2
ENDMDL
MODEL 3
REMARK VINA RESULT:      -6.7     12.835     14.636
REMARK  Name = min_compound986.pdb
REMARK  4 active torsions:
REMARK  status: ('A' for Active; 'I' for Inactive)
REMARK    1  A    between atoms: _3  and  _16
REMARK    2  A    between atoms: _9  and  _17
REMARK    3  A    between atoms: _14  and  _21
REMARK    4  A    between atoms: _15  and  _18
REMARK                            x       y       z     vdW  Elec       q    Type
REMARK                         _______ _______ _______ _____ _____    ______ ____
ROOT
ATOM      1  C   UNL     1     -17.216  -1.940  -0.060  0.00  0.00    +0.002 A 
ATOM      2  C   UNL     1     -17.848  -1.102  -0.978  0.00  0.00    +0.026 A 
ATOM      3  C   UNL     1     -17.127  -0.699  -2.115  0.00  0.00    +0.050 A 
ATOM      4  N   UNL     1     -17.469   0.163  -3.147  0.00  0.00    -0.342 N 
ATOM      5  C   UNL     1     -18.568   1.098  -3.022  0.00  0.00    +0.149 C 
ATOM      6  C   UNL     1     -16.516   0.159  -4.162  0.00  0.00    +0.061 A 
ATOM      7  C   UNL     1     -16.491   0.732  -5.510  0.00  0.00    +0.051 A 
ATOM      8  C   UNL     1     -17.666   1.207  -6.220  0.00  0.00    +0.127 A 
ATOM      9  C   UNL     1     -17.377   1.811  -7.457  0.00  0.00    +0.049 A 
ATOM     10  C   UNL     1     -16.088   1.922  -8.009  0.00  0.00    +0.049 A 
ATOM     11  C   UNL     1     -14.932   1.410  -7.409  0.00  0.00    +0.125 A 
ATOM     12  C   UNL     1     -15.173   0.781  -6.141  0.00  0.00    +0.029 A 
ATOM     13  C   UNL     1     -14.087   0.169  -5.494  0.00  0.00    +0.013 A 
ATOM     14  C   UNL     1     -14.195  -0.501  -4.280  0.00  0.00    +0.011 A 
ATOM     15  C   UNL     1     -15.417  -0.503  -3.594  0.00  0.00    +0.009 A 
ATOM     16  C   UNL     1     -15.820  -1.105  -2.350  0.00  0.00    +0.011 A 
ATOM     17  C   UNL     1     -15.175  -1.954  -1.406  0.00  0.00    -0.041 A 
ATOM     18  C   UNL     1     -13.772  -2.431  -1.644  0.00  0.00    +0.044 C 
ATOM     19  C   UNL     1     -15.906  -2.357  -0.265  0.00  0.00    +0.004 A 
ENDROOT
BRANCH  11  20
ATOM     20  O   UNL     1     -13.791   1.523  -7.998  0.00  0.00    -0.506 OA
ATOM     21  H   UNL     1     -13.726   1.994  -8.806  0.00  0.00    +0.292 HD
ENDBRANCH  11  20
BRANCH   8  22
ATOM     22  O   UNL     1     -18.895   1.089  -5.865  0.00  0.00    -0.506 OA
ATOM     23  H   UNL     1     -19.550   0.888  -6.504  0.00  0.00    +0.292 HD
ENDBRANCH   8  22
TORSDOF 2
ENDMDL
MODEL 4
REMARK VINA RESULT:      -6.7     13.986     15.397
REMARK  Name = min_compound986.pdb
REMARK  4 active torsions:
REMARK  status: ('A' for Active; 'I' for Inactive)
REMARK    1  A    between atoms: _3  and  _16
REMARK    2  A    between atoms: _9  and  _17
REMARK    3  A    between atoms: _14  and  _21
REMARK    4  A    between atoms: _15  and  _18
REMARK                            x       y       z     vdW  Elec       q    Type
REMARK                         _______ _______ _______ _____ _____    ______ ____
ROOT
ATOM      1  C   UNL     1     -16.582   2.796  -4.275  0.00  0.00    +0.002 A 
ATOM      2  C   UNL     1     -17.446   1.704  -4.204  0.00  0.00    +0.026 A 
ATOM      3  C   UNL     1     -16.916   0.463  -3.809  0.00  0.00    +0.050 A 
ATOM      4  N   UNL     1     -17.511  -0.786  -3.710  0.00  0.00    -0.342 N 
ATOM      5  C   UNL     1     -18.770  -1.082  -4.362  0.00  0.00    +0.149 C 
ATOM      6  C   UNL     1     -16.660  -1.719  -3.123  0.00  0.00    +0.061 A 
ATOM      7  C   UNL     1     -16.861  -3.087  -2.638  0.00  0.00    +0.051 A 
ATOM      8  C   UNL     1     -18.161  -3.684  -2.384  0.00  0.00    +0.127 A 
ATOM      9  C   UNL     1     -18.102  -5.042  -2.024  0.00  0.00    +0.049 A 
ATOM     10  C   UNL     1     -16.912  -5.776  -1.869  0.00  0.00    +0.049 A 
ATOM     11  C   UNL     1     -15.632  -5.232  -2.020  0.00  0.00    +0.125 A 
ATOM     12  C   UNL     1     -15.636  -3.844  -2.388  0.00  0.00    +0.029 A 
ATOM     13  C   UNL     1     -14.399  -3.188  -2.490  0.00  0.00    +0.013 A 
ATOM     14  C   UNL     1     -14.268  -1.839  -2.806  0.00  0.00    +0.011 A 
ATOM     15  C   UNL     1     -15.406  -1.091  -3.137  0.00  0.00    +0.009 A 
ATOM     16  C   UNL     1     -15.575   0.294  -3.492  0.00  0.00    +0.011 A 
ATOM     17  C   UNL     1     -14.695   1.410  -3.574  0.00  0.00    -0.041 A 
ATOM     18  C   UNL     1     -13.245   1.266  -3.212  0.00  0.00    +0.044 C 
ATOM     19  C   UNL     1     -15.233   2.655  -3.970  0.00  0.00    +0.004 A 
ENDROOT
BRANCH  11  20
ATOM     20  O   UNL     1     -14.589  -5.965  -1.827  0.00  0.00    -0.506 OA
ATOM     21  H   UNL     1     -13.997  -5.763  -1.129  0.00  0.00    +0.292 HD
ENDBRANCH  11  20
BRANCH   8  22
ATOM     22  O   UNL     1     -19.306  -3.101  -2.407  0.00  0.00    -0.506 OA
ATOM     23  H   UNL     1     -19.538  -2.496  -1.730  0.00  0.00    +0.292 HD
ENDBRANCH   8  22
TORSDOF 2
ENDMDL
MODEL 5
REMARK VINA RESULT:      -6.5     12.758     14.208
REMARK  Name = min_compound986.pdb
REMARK  4 active torsions:
REMARK  status: ('A' for Active; 'I' for Inactive)
REMARK    1  A    between atoms: _3  and  _16
REMARK    2  A    between atoms: _9  and  _17
REMARK    3  A    between atoms: _14  and  _21
REMARK    4  A    between atoms: _15  and  _18
REMARK                            x       y       z     vdW  Elec       q    Type
REMARK                         _______ _______ _______ _____ _____    ______ ____
ROOT
ATOM      1  C   UNL     1     -17.750   1.540  -8.281  0.00  0.00    +0.002 A 
ATOM      2  C   UNL     1     -18.416   0.893  -7.241  0.00  0.00    +0.026 A 
ATOM      3  C   UNL     1     -17.646   0.338  -6.203  0.00  0.00    +0.050 A 
ATOM      4  N   UNL     1     -18.023  -0.403  -5.092  0.00  0.00    -0.342 N 
ATOM      5  C   UNL     1     -19.319  -1.041  -5.008  0.00  0.00    +0.149 C 
ATOM      6  C   UNL     1     -16.952  -0.620  -4.229  0.00  0.00    +0.061 A 
ATOM      7  C   UNL     1     -16.857  -1.167  -2.873  0.00  0.00    +0.051 A 
ATOM      8  C   UNL     1     -17.988  -1.332  -1.976  0.00  0.00    +0.127 A 
ATOM      9  C   UNL     1     -17.665  -1.975  -0.768  0.00  0.00    +0.049 A 
ATOM     10  C   UNL     1     -16.372  -2.392  -0.406  0.00  0.00    +0.049 A 
ATOM     11  C   UNL     1     -15.234  -2.185  -1.193  0.00  0.00    +0.125 A 
ATOM     12  C   UNL     1     -15.509  -1.531  -2.441  0.00  0.00    +0.029 A 
ATOM     13  C   UNL     1     -14.421  -1.211  -3.269  0.00  0.00    +0.013 A 
ATOM     14  C   UNL     1     -14.550  -0.549  -4.486  0.00  0.00    +0.011 A 
ATOM     15  C   UNL     1     -15.827  -0.255  -4.984  0.00  0.00    +0.009 A 
ATOM     16  C   UNL     1     -16.260   0.414  -6.183  0.00  0.00    +0.011 A 
ATOM     17  C   UNL     1     -15.584   1.068  -7.251  0.00  0.00    -0.041 A 
ATOM     18  C   UNL     1     -14.087   1.190  -7.245  0.00  0.00    +0.044 C 
ATOM     19  C   UNL     1     -16.362   1.625  -8.291  0.00  0.00    +0.004 A 
ENDROOT
BRANCH  11  20
ATOM     20  O   UNL     1     -14.076  -2.568  -0.774  0.00  0.00    -0.506 OA
ATOM     21  H   UNL     1     -13.959  -2.805   0.126  0.00  0.00    +0.292 HD
ENDBRANCH  11  20
BRANCH   8  22
ATOM     22  O   UNL     1     -19.192  -0.920  -2.152  0.00  0.00    -0.506 OA
ATOM     23  H   UNL     1     -19.418  -0.453  -2.933  0.00  0.00    +0.292 HD
ENDBRANCH   8  22
TORSDOF 2
ENDMDL
MODEL 6
REMARK VINA RESULT:      -6.4      2.906      5.649
REMARK  Name = min_compound986.pdb
REMARK  4 active torsions:
REMARK  status: ('A' for Active; 'I' for Inactive)
REMARK    1  A    between atoms: _3  and  _16
REMARK    2  A    between atoms: _9  and  _17
REMARK    3  A    between atoms: _14  and  _21
REMARK    4  A    between atoms: _15  and  _18
REMARK                            x       y       z     vdW  Elec       q    Type
REMARK                         _______ _______ _______ _____ _____    ______ ____
ROOT
ATOM      1  C   UNL     1     -10.237   3.282 -17.402  0.00  0.00    +0.002 A 
ATOM      2  C   UNL     1     -11.099   4.361 -17.212  0.00  0.00    +0.026 A 
ATOM      3  C   UNL     1     -12.400   4.097 -16.749  0.00  0.00    +0.050 A 
ATOM      4  N   UNL     1     -13.474   4.948 -16.532  0.00  0.00    -0.342 N 
ATOM      5  C   UNL     1     -13.519   6.277 -17.103  0.00  0.00    +0.149 C 
ATOM      6  C   UNL     1     -14.537   4.292 -15.916  0.00  0.00    +0.061 A 
ATOM      7  C   UNL     1     -15.792   4.762 -15.322  0.00  0.00    +0.051 A 
ATOM      8  C   UNL     1     -16.062   6.145 -14.967  0.00  0.00    +0.127 A 
ATOM      9  C   UNL     1     -17.373   6.367 -14.511  0.00  0.00    +0.049 A 
ATOM     10  C   UNL     1     -18.346   5.363 -14.354  0.00  0.00    +0.049 A 
ATOM     11  C   UNL     1     -18.116   4.005 -14.602  0.00  0.00    +0.125 A 
ATOM     12  C   UNL     1     -16.789   3.723 -15.071  0.00  0.00    +0.029 A 
ATOM     13  C   UNL     1     -16.437   2.380 -15.276  0.00  0.00    +0.013 A 
ATOM     14  C   UNL     1     -15.175   1.972 -15.697  0.00  0.00    +0.011 A 
ATOM     15  C   UNL     1     -14.211   2.932 -16.032  0.00  0.00    +0.009 A 
ATOM     16  C   UNL     1     -12.848   2.811 -16.480  0.00  0.00    +0.011 A 
ATOM     17  C   UNL     1     -11.967   1.711 -16.684  0.00  0.00    -0.041 A 
ATOM     18  C   UNL     1     -12.412   0.311 -16.377  0.00  0.00    +0.044 C 
ATOM     19  C   UNL     1     -10.660   1.982 -17.147  0.00  0.00    +0.004 A 
ENDROOT
BRANCH  11  20
ATOM     20  O   UNL     1     -19.052   3.142 -14.401  0.00  0.00    -0.506 OA
ATOM     21  H   UNL     1     -19.877   3.236 -14.836  0.00  0.00    +0.292 HD
ENDBRANCH  11  20
BRANCH   8  22
ATOM     22  O   UNL     1     -15.239   7.131 -14.983  0.00  0.00    -0.506 OA
ATOM     23  H   UNL     1     -14.455   7.095 -14.471  0.00  0.00    +0.292 HD
ENDBRANCH   8  22
TORSDOF 2
ENDMDL
MODEL 7
REMARK VINA RESULT:      -6.4      2.165      2.753
REMARK  Name = min_compound986.pdb
REMARK  4 active torsions:
REMARK  status: ('A' for Active; 'I' for Inactive)
REMARK    1  A    between atoms: _3  and  _16
REMARK    2  A    between atoms: _9  and  _17
REMARK    3  A    between atoms: _14  and  _21
REMARK    4  A    between atoms: _15  and  _18
REMARK                            x       y       z     vdW  Elec       q    Type
REMARK                         _______ _______ _______ _____ _____    ______ ____
ROOT
ATOM      1  C   UNL     1     -17.299   6.451 -17.534  0.00  0.00    +0.002 A 
ATOM      2  C   UNL     1     -16.471   5.669 -18.339  0.00  0.00    +0.026 A 
ATOM      3  C   UNL     1     -15.417   4.969 -17.727  0.00  0.00    +0.050 A 
ATOM      4  N   UNL     1     -14.416   4.179 -18.273  0.00  0.00    -0.342 N 
ATOM      5  C   UNL     1     -14.091   4.231 -19.683  0.00  0.00    +0.149 C 
ATOM      6  C   UNL     1     -13.666   3.542 -17.288  0.00  0.00    +0.061 A 
ATOM      7  C   UNL     1     -12.646   2.490 -17.334  0.00  0.00    +0.051 A 
ATOM      8  C   UNL     1     -12.408   1.629 -18.479  0.00  0.00    +0.127 A 
ATOM      9  C   UNL     1     -11.308   0.768 -18.323  0.00  0.00    +0.049 A 
ATOM     10  C   UNL     1     -10.516   0.686 -17.164  0.00  0.00    +0.049 A 
ATOM     11  C   UNL     1     -10.749   1.431 -16.003  0.00  0.00    +0.125 A 
ATOM     12  C   UNL     1     -11.864   2.328 -16.109  0.00  0.00    +0.029 A 
ATOM     13  C   UNL     1     -12.225   3.066 -14.970  0.00  0.00    +0.013 A 
ATOM     14  C   UNL     1     -13.304   3.943 -14.934  0.00  0.00    +0.011 A 
ATOM     15  C   UNL     1     -14.033   4.198 -16.103  0.00  0.00    +0.009 A 
ATOM     16  C   UNL     1     -15.177   5.032 -16.361  0.00  0.00    +0.011 A 
ATOM     17  C   UNL     1     -16.018   5.838 -15.543  0.00  0.00    -0.041 A 
ATOM     18  C   UNL     1     -15.801   5.906 -14.059  0.00  0.00    +0.044 C 
ATOM     19  C   UNL     1     -17.077   6.538 -16.164  0.00  0.00    +0.004 A 
ENDROOT
BRANCH  11  20
ATOM     20  O   UNL     1      -9.995   1.272 -14.968  0.00  0.00    -0.506 OA
ATOM     21  H   UNL     1      -9.999   1.913 -14.284  0.00  0.00    +0.292 HD
ENDBRANCH  11  20
BRANCH   8  22
ATOM     22  O   UNL     1     -13.107   1.548 -19.554  0.00  0.00    -0.506 OA
ATOM     23  H   UNL     1     -12.887   2.074 -20.297  0.00  0.00    +0.292 HD
ENDBRANCH   8  22
TORSDOF 2
ENDMDL
MODEL 8
REMARK VINA RESULT:      -6.3      3.825      5.959
REMARK  Name = min_compound986.pdb
REMARK  4 active torsions:
REMARK  status: ('A' for Active; 'I' for Inactive)
REMARK    1  A    between atoms: _3  and  _16
REMARK    2  A    between atoms: _9  and  _17
REMARK    3  A    between atoms: _14  and  _21
REMARK    4  A    between atoms: _15  and  _18
REMARK                            x       y       z     vdW  Elec       q    Type
REMARK                         _______ _______ _______ _____ _____    ______ ____
ROOT
ATOM      1  C   UNL     1     -12.395   6.921 -18.774  0.00  0.00    +0.002 A 
ATOM      2  C   UNL     1     -13.380   7.518 -17.988  0.00  0.00    +0.026 A 
ATOM      3  C   UNL     1     -14.033   6.726 -17.028  0.00  0.00    +0.050 A 
ATOM      4  N   UNL     1     -15.076   7.027 -16.163  0.00  0.00    -0.342 N 
ATOM      5  C   UNL     1     -15.924   8.182 -16.368  0.00  0.00    +0.149 C 
ATOM      6  C   UNL     1     -15.315   5.993 -15.262  0.00  0.00    +0.061 A 
ATOM      7  C   UNL     1     -16.153   5.885 -14.065  0.00  0.00    +0.051 A 
ATOM      8  C   UNL     1     -16.720   7.020 -13.357  0.00  0.00    +0.127 A 
ATOM      9  C   UNL     1     -17.575   6.660 -12.300  0.00  0.00    +0.049 A 
ATOM     10  C   UNL     1     -17.844   5.337 -11.905  0.00  0.00    +0.049 A 
ATOM     11  C   UNL     1     -17.262   4.210 -12.497  0.00  0.00    +0.125 A 
ATOM     12  C   UNL     1     -16.379   4.523 -13.584  0.00  0.00    +0.029 A 
ATOM     13  C   UNL     1     -15.688   3.464 -14.194  0.00  0.00    +0.013 A 
ATOM     14  C   UNL     1     -14.780   3.637 -15.234  0.00  0.00    +0.011 A 
ATOM     15  C   UNL     1     -14.592   4.911 -15.787  0.00  0.00    +0.009 A 
ATOM     16  C   UNL     1     -13.733   5.383 -16.841  0.00  0.00    +0.011 A 
ATOM     17  C   UNL     1     -12.733   4.775 -17.651  0.00  0.00    -0.041 A 
ATOM     18  C   UNL     1     -12.367   3.333 -17.456  0.00  0.00    +0.044 C 
ATOM     19  C   UNL     1     -12.078   5.576 -18.614  0.00  0.00    +0.004 A 
ENDROOT
BRANCH  11  20
ATOM     20  O   UNL     1     -17.537   3.031 -12.053  0.00  0.00    -0.506 OA
ATOM     21  H   UNL     1     -16.917   2.577 -11.515  0.00  0.00    +0.292 HD
ENDBRANCH  11  20
BRANCH   8  22
ATOM     22  O   UNL     1     -16.485   8.266 -13.564  0.00  0.00    -0.506 OA
ATOM     23  H   UNL     1     -16.093   8.787 -12.891  0.00  0.00    +0.292 HD
ENDBRANCH   8  22
TORSDOF 2
ENDMDL
MODEL 9
REMARK VINA RESULT:      -6.3     11.738     13.396
REMARK  Name = min_compound986.pdb
REMARK  4 active torsions:
REMARK  status: ('A' for Active; 'I' for Inactive)
REMARK    1  A    between atoms: _3  and  _16
REMARK    2  A    between atoms: _9  and  _17
REMARK    3  A    between atoms: _14  and  _21
REMARK    4  A    between atoms: _15  and  _18
REMARK                            x       y       z     vdW  Elec       q    Type
REMARK                         _______ _______ _______ _____ _____    ______ ____
ROOT
ATOM      1  C   UNL     1     -14.976  -1.856  -1.602  0.00  0.00    +0.002 A 
ATOM      2  C   UNL     1     -14.462  -1.398  -2.814  0.00  0.00    +0.026 A 
ATOM      3  C   UNL     1     -15.358  -0.858  -3.753  0.00  0.00    +0.050 A 
ATOM      4  N   UNL     1     -15.146  -0.391  -5.042  0.00  0.00    -0.342 N 
ATOM      5  C   UNL     1     -13.946  -0.720  -5.782  0.00  0.00    +0.149 C 
ATOM      6  C   UNL     1     -16.287   0.209  -5.569  0.00  0.00    +0.061 A 
ATOM      7  C   UNL     1     -16.533   0.999  -6.778  0.00  0.00    +0.051 A 
ATOM      8  C   UNL     1     -15.490   1.610  -7.583  0.00  0.00    +0.127 A 
ATOM      9  C   UNL     1     -15.964   2.228  -8.754  0.00  0.00    +0.049 A 
ATOM     10  C   UNL     1     -17.319   2.309  -9.121  0.00  0.00    +0.049 A 
ATOM     11  C   UNL     1     -18.372   1.811  -8.344  0.00  0.00    +0.125 A 
ATOM     12  C   UNL     1     -17.940   1.168  -7.135  0.00  0.00    +0.029 A 
ATOM     13  C   UNL     1     -18.926   0.702  -6.251  0.00  0.00    +0.013 A 
ATOM     14  C   UNL     1     -18.640   0.092  -5.034  0.00  0.00    +0.011 A 
ATOM     15  C   UNL     1     -17.309  -0.170  -4.685  0.00  0.00    +0.009 A 
ATOM     16  C   UNL     1     -16.722  -0.769  -3.514  0.00  0.00    +0.011 A 
ATOM     17  C   UNL     1     -17.244  -1.245  -2.279  0.00  0.00    -0.041 A 
ATOM     18  C   UNL     1     -18.711  -1.138  -1.979  0.00  0.00    +0.044 C 
ATOM     19  C   UNL     1     -16.339  -1.786  -1.337  0.00  0.00    +0.004 A 
ENDROOT
BRANCH  11  20
ATOM     20  O   UNL     1     -19.592   1.956  -8.736  0.00  0.00    -0.506 OA
ATOM     21  H   UNL     1     -19.854   2.744  -9.170  0.00  0.00    +0.292 HD
ENDBRANCH  11  20
BRANCH   8  22
ATOM     22  O   UNL     1     -14.235   1.679  -7.315  0.00  0.00    -0.506 OA
ATOM     23  H   UNL     1     -13.606   1.356  -7.929  0.00  0.00    +0.292 HD
ENDBRANCH   8  22
TORSDOF 2
ENDMDL
