MODEL 1
REMARK VINA RESULT:      -7.2      0.000      0.000
REMARK  Name = min_compound945.pdb
REMARK  8 active torsions:
REMARK  status: ('A' for Active; 'I' for Inactive)
REMARK    1  A    between atoms: _1  and  _20
REMARK    2  A    between atoms: _2  and  _21
REMARK    3  A    between atoms: _4  and  _12
REMARK    4  A    between atoms: _10  and  _16
REMARK    5  A    between atoms: _12  and  _13
REMARK    6  A    between atoms: _13  and  _15
REMARK    7  A    between atoms: _16  and  _17
REMARK    8  A    between atoms: _17  and  _19
REMARK                            x       y       z     vdW  Elec       q    Type
REMARK                         _______ _______ _______ _____ _____    ______ ____
ROOT
ATOM      1  C   UNL     1     -15.018   4.398 -15.622  0.00  0.00    +0.100 C 
ATOM      2  C   UNL     1     -16.247   5.246 -15.472  0.00  0.00    +0.045 C 
ATOM      3  O   UNL     1     -14.574   3.803 -14.388  0.00  0.00    -0.361 OA
ATOM      4  C   UNL     1     -15.070   2.898 -15.393  0.00  0.00    +0.100 C 
ATOM      5  C   UNL     1     -16.348   2.215 -15.003  0.00  0.00    +0.045 C 
ATOM      6  C   UNL     1     -14.033   2.009 -16.018  0.00  0.00    +0.077 C 
ATOM      7  C   UNL     1     -12.745   2.694 -16.418  0.00  0.00    +0.005 A 
ATOM      8  C   UNL     1     -11.595   1.885 -16.633  0.00  0.00    +0.135 A 
ATOM      9  C   UNL     1     -10.406   2.533 -17.003  0.00  0.00    +0.050 A 
ATOM     10  C   UNL     1     -10.354   3.950 -17.213  0.00  0.00    +0.050 A 
ATOM     11  C   UNL     1     -11.492   4.761 -17.060  0.00  0.00    +0.135 A 
ATOM     12  C   UNL     1     -12.693   4.133 -16.633  0.00  0.00    +0.005 A 
ATOM     13  C   UNL     1     -13.928   4.989 -16.472  0.00  0.00    +0.077 C 
ENDROOT
BRANCH   8  14
ATOM     14  O   UNL     1     -11.677   0.412 -16.403  0.00  0.00    -0.426 OA
BRANCH  14  15
ATOM     15  C   UNL     1     -10.562  -0.446 -16.437  0.00  0.00    +0.309 C 
ATOM     16  C   UNL     1      -9.954  -1.006 -17.689  0.00  0.00    +0.136 C 
ATOM     17  O   UNL     1      -9.994  -0.768 -15.386  0.00  0.00    -0.251 OA
ENDBRANCH  14  15
ENDBRANCH   8  14
BRANCH  11  18
ATOM     18  O   UNL     1     -11.465   6.240 -17.266  0.00  0.00    -0.426 OA
BRANCH  18  19
ATOM     19  C   UNL     1     -12.025   6.884 -18.386  0.00  0.00    +0.309 C 
ATOM     20  C   UNL     1     -11.687   6.569 -19.813  0.00  0.00    +0.136 C 
ATOM     21  O   UNL     1     -12.844   7.800 -18.229  0.00  0.00    -0.251 OA
ENDBRANCH  18  19
ENDBRANCH  11  18
TORSDOF 4
ENDMDL
MODEL 2
REMARK VINA RESULT:      -6.9      1.374      5.178
REMARK  Name = min_compound945.pdb
REMARK  8 active torsions:
REMARK  status: ('A' for Active; 'I' for Inactive)
REMARK    1  A    between atoms: _1  and  _20
REMARK    2  A    between atoms: _2  and  _21
REMARK    3  A    between atoms: _4  and  _12
REMARK    4  A    between atoms: _10  and  _16
REMARK    5  A    between atoms: _12  and  _13
REMARK    6  A    between atoms: _13  and  _15
REMARK    7  A    between atoms: _16  and  _17
REMARK    8  A    between atoms: _17  and  _19
REMARK                            x       y       z     vdW  Elec       q    Type
REMARK                         _______ _______ _______ _____ _____    ______ ____
ROOT
ATOM      1  C   UNL     1     -15.219   3.088 -15.771  0.00  0.00    +0.100 C 
ATOM      2  C   UNL     1     -16.264   2.295 -15.043  0.00  0.00    +0.045 C 
ATOM      3  O   UNL     1     -15.385   3.083 -17.201  0.00  0.00    -0.361 OA
ATOM      4  C   UNL     1     -15.586   4.345 -16.539  0.00  0.00    +0.100 C 
ATOM      5  C   UNL     1     -17.004   4.833 -16.601  0.00  0.00    +0.045 C 
ATOM      6  C   UNL     1     -14.538   5.386 -16.817  0.00  0.00    +0.077 C 
ATOM      7  C   UNL     1     -13.107   4.901 -16.751  0.00  0.00    +0.005 A 
ATOM      8  C   UNL     1     -12.103   5.689 -17.378  0.00  0.00    +0.135 A 
ATOM      9  C   UNL     1     -10.779   5.228 -17.310  0.00  0.00    +0.050 A 
ATOM     10  C   UNL     1     -10.432   4.036 -16.591  0.00  0.00    +0.050 A 
ATOM     11  C   UNL     1     -11.401   3.273 -15.918  0.00  0.00    +0.135 A 
ATOM     12  C   UNL     1     -12.755   3.693 -16.019  0.00  0.00    +0.005 A 
ATOM     13  C   UNL     1     -13.808   2.887 -15.293  0.00  0.00    +0.077 C 
ENDROOT
BRANCH   8  14
ATOM     14  O   UNL     1     -12.494   6.922 -18.124  0.00  0.00    -0.426 OA
BRANCH  14  15
ATOM     15  C   UNL     1     -12.597   6.986 -19.526  0.00  0.00    +0.309 C 
ATOM     16  C   UNL     1     -11.437   7.163 -20.461  0.00  0.00    +0.136 C 
ATOM     17  O   UNL     1     -13.701   6.867 -20.073  0.00  0.00    -0.251 OA
ENDBRANCH  14  15
ENDBRANCH   8  14
BRANCH  11  18
ATOM     18  O   UNL     1     -11.068   2.025 -15.166  0.00  0.00    -0.426 OA
BRANCH  18  19
ATOM     19  C   UNL     1     -10.716   0.810 -15.784  0.00  0.00    +0.309 C 
ATOM     20  C   UNL     1     -11.565   0.080 -16.781  0.00  0.00    +0.136 C 
ATOM     21  O   UNL     1      -9.648   0.255 -15.495  0.00  0.00    -0.251 OA
ENDBRANCH  18  19
ENDBRANCH  11  18
TORSDOF 4
ENDMDL
MODEL 3
REMARK VINA RESULT:      -6.8      1.359      6.047
REMARK  Name = min_compound945.pdb
REMARK  8 active torsions:
REMARK  status: ('A' for Active; 'I' for Inactive)
REMARK    1  A    between atoms: _1  and  _20
REMARK    2  A    between atoms: _2  and  _21
REMARK    3  A    between atoms: _4  and  _12
REMARK    4  A    between atoms: _10  and  _16
REMARK    5  A    between atoms: _12  and  _13
REMARK    6  A    between atoms: _13  and  _15
REMARK    7  A    between atoms: _16  and  _17
REMARK    8  A    between atoms: _17  and  _19
REMARK                            x       y       z     vdW  Elec       q    Type
REMARK                         _______ _______ _______ _____ _____    ______ ____
ROOT
ATOM      1  C   UNL     1     -11.884   0.639 -16.423  0.00  0.00    +0.100 C 
ATOM      2  C   UNL     1     -11.662  -0.844 -16.387  0.00  0.00    +0.045 C 
ATOM      3  O   UNL     1     -10.980   1.377 -15.581  0.00  0.00    -0.361 OA
ATOM      4  C   UNL     1     -10.836   1.573 -17.000  0.00  0.00    +0.100 C 
ATOM      5  C   UNL     1      -9.542   1.046 -17.546  0.00  0.00    +0.045 C 
ATOM      6  C   UNL     1     -11.237   2.932 -17.501  0.00  0.00    +0.077 C 
ATOM      7  C   UNL     1     -12.544   3.465 -16.957  0.00  0.00    +0.005 A 
ATOM      8  C   UNL     1     -12.790   4.862 -17.056  0.00  0.00    +0.135 A 
ATOM      9  C   UNL     1     -14.006   5.344 -16.547  0.00  0.00    +0.050 A 
ATOM     10  C   UNL     1     -14.994   4.464 -15.995  0.00  0.00    +0.050 A 
ATOM     11  C   UNL     1     -14.795   3.074 -15.939  0.00  0.00    +0.135 A 
ATOM     12  C   UNL     1     -13.548   2.570 -16.400  0.00  0.00    +0.005 A 
ATOM     13  C   UNL     1     -13.321   1.076 -16.354  0.00  0.00    +0.077 C 
ENDROOT
BRANCH   8  14
ATOM     14  O   UNL     1     -11.741   5.756 -17.630  0.00  0.00    -0.426 OA
BRANCH  14  15
ATOM     15  C   UNL     1     -12.000   6.734 -18.608  0.00  0.00    +0.309 C 
ATOM     16  C   UNL     1     -11.718   6.573 -20.073  0.00  0.00    +0.136 C 
ATOM     17  O   UNL     1     -12.522   7.810 -18.288  0.00  0.00    -0.251 OA
ENDBRANCH  14  15
ENDBRANCH   8  14
BRANCH  11  18
ATOM     18  O   UNL     1     -15.804   2.134 -15.365  0.00  0.00    -0.426 OA
BRANCH  18  19
ATOM     19  C   UNL     1     -16.951   2.552 -14.663  0.00  0.00    +0.309 C 
ATOM     20  C   UNL     1     -17.013   2.777 -13.181  0.00  0.00    +0.136 C 
ATOM     21  O   UNL     1     -18.016   2.735 -15.268  0.00  0.00    -0.251 OA
ENDBRANCH  18  19
ENDBRANCH  11  18
TORSDOF 4
ENDMDL
MODEL 4
REMARK VINA RESULT:      -6.6      2.613      5.591
REMARK  Name = min_compound945.pdb
REMARK  8 active torsions:
REMARK  status: ('A' for Active; 'I' for Inactive)
REMARK    1  A    between atoms: _1  and  _20
REMARK    2  A    between atoms: _2  and  _21
REMARK    3  A    between atoms: _4  and  _12
REMARK    4  A    between atoms: _10  and  _16
REMARK    5  A    between atoms: _12  and  _13
REMARK    6  A    between atoms: _13  and  _15
REMARK    7  A    between atoms: _16  and  _17
REMARK    8  A    between atoms: _17  and  _19
REMARK                            x       y       z     vdW  Elec       q    Type
REMARK                         _______ _______ _______ _____ _____    ______ ____
ROOT
ATOM      1  C   UNL     1     -13.924   2.635 -20.091  0.00  0.00    +0.100 C 
ATOM      2  C   UNL     1     -14.135   2.072 -21.466  0.00  0.00    +0.045 C 
ATOM      3  O   UNL     1     -13.832   4.072 -20.064  0.00  0.00    -0.361 OA
ATOM      4  C   UNL     1     -14.985   3.492 -19.425  0.00  0.00    +0.100 C 
ATOM      5  C   UNL     1     -16.276   3.810 -20.121  0.00  0.00    +0.045 C 
ATOM      6  C   UNL     1     -15.017   3.618 -17.928  0.00  0.00    +0.077 C 
ATOM      7  C   UNL     1     -13.719   3.294 -17.222  0.00  0.00    +0.005 A 
ATOM      8  C   UNL     1     -13.546   3.763 -15.891  0.00  0.00    +0.135 A 
ATOM      9  C   UNL     1     -12.337   3.455 -15.247  0.00  0.00    +0.050 A 
ATOM     10  C   UNL     1     -11.331   2.652 -15.877  0.00  0.00    +0.050 A 
ATOM     11  C   UNL     1     -11.505   2.131 -17.170  0.00  0.00    +0.135 A 
ATOM     12  C   UNL     1     -12.699   2.475 -17.861  0.00  0.00    +0.005 A 
ATOM     13  C   UNL     1     -12.906   1.916 -19.250  0.00  0.00    +0.077 C 
ENDROOT
BRANCH   8  14
ATOM     14  O   UNL     1     -14.609   4.602 -15.261  0.00  0.00    -0.426 OA
BRANCH  14  15
ATOM     15  C   UNL     1     -15.251   4.269 -14.054  0.00  0.00    +0.309 C 
ATOM     16  C   UNL     1     -15.126   5.047 -12.778  0.00  0.00    +0.136 C 
ATOM     17  O   UNL     1     -16.003   3.287 -14.001  0.00  0.00    -0.251 OA
ENDBRANCH  14  15
ENDBRANCH   8  14
BRANCH  11  18
ATOM     18  O   UNL     1     -10.471   1.296 -17.853  0.00  0.00    -0.426 OA
BRANCH  18  19
ATOM     19  C   UNL     1      -9.944   0.108 -17.312  0.00  0.00    +0.309 C 
ATOM     20  C   UNL     1     -10.699  -0.839 -16.428  0.00  0.00    +0.136 C 
ATOM     21  O   UNL     1      -8.767  -0.206 -17.536  0.00  0.00    -0.251 OA
ENDBRANCH  18  19
ENDBRANCH  11  18
TORSDOF 4
ENDMDL
MODEL 5
REMARK VINA RESULT:      -6.5      2.781      5.509
REMARK  Name = min_compound945.pdb
REMARK  8 active torsions:
REMARK  status: ('A' for Active; 'I' for Inactive)
REMARK    1  A    between atoms: _1  and  _20
REMARK    2  A    between atoms: _2  and  _21
REMARK    3  A    between atoms: _4  and  _12
REMARK    4  A    between atoms: _10  and  _16
REMARK    5  A    between atoms: _12  and  _13
REMARK    6  A    between atoms: _13  and  _15
REMARK    7  A    between atoms: _16  and  _17
REMARK    8  A    between atoms: _17  and  _19
REMARK                            x       y       z     vdW  Elec       q    Type
REMARK                         _______ _______ _______ _____ _____    ______ ____
ROOT
ATOM      1  C   UNL     1     -11.256   0.504 -17.492  0.00  0.00    +0.100 C 
ATOM      2  C   UNL     1     -10.177  -0.487 -17.819  0.00  0.00    +0.045 C 
ATOM      3  O   UNL     1     -12.146   0.063 -16.450  0.00  0.00    -0.361 OA
ATOM      4  C   UNL     1     -11.305   1.188 -16.138  0.00  0.00    +0.100 C 
ATOM      5  C   UNL     1     -10.282   0.893 -15.080  0.00  0.00    +0.045 C 
ATOM      6  C   UNL     1     -12.022   2.500 -15.987  0.00  0.00    +0.077 C 
ATOM      7  C   UNL     1     -13.050   2.805 -17.053  0.00  0.00    +0.005 A 
ATOM      8  C   UNL     1     -14.030   3.796 -16.774  0.00  0.00    +0.135 A 
ATOM      9  C   UNL     1     -14.979   4.070 -17.772  0.00  0.00    +0.050 A 
ATOM     10  C   UNL     1     -14.938   3.419 -19.049  0.00  0.00    +0.050 A 
ATOM     11  C   UNL     1     -13.945   2.476 -19.365  0.00  0.00    +0.135 A 
ATOM     12  C   UNL     1     -13.007   2.145 -18.351  0.00  0.00    +0.005 A 
ATOM     13  C   UNL     1     -11.927   1.140 -18.678  0.00  0.00    +0.077 C 
ENDROOT
BRANCH   8  14
ATOM     14  O   UNL     1     -14.051   4.455 -15.434  0.00  0.00    -0.426 OA
BRANCH  14  15
ATOM     15  C   UNL     1     -14.888   4.048 -14.379  0.00  0.00    +0.309 C 
ATOM     16  C   UNL     1     -14.976   4.731 -13.046  0.00  0.00    +0.136 C 
ATOM     17  O   UNL     1     -15.643   3.077 -14.523  0.00  0.00    -0.251 OA
ENDBRANCH  14  15
ENDBRANCH   8  14
BRANCH  11  18
ATOM     18  O   UNL     1     -13.883   1.779 -20.685  0.00  0.00    -0.426 OA
BRANCH  18  19
ATOM     19  C   UNL     1     -13.284   2.331 -21.834  0.00  0.00    +0.309 C 
ATOM     20  C   UNL     1     -13.291   3.789 -22.186  0.00  0.00    +0.136 C 
ATOM     21  O   UNL     1     -12.720   1.594 -22.654  0.00  0.00    -0.251 OA
ENDBRANCH  18  19
ENDBRANCH  11  18
TORSDOF 4
ENDMDL
MODEL 6
REMARK VINA RESULT:      -6.2      1.754      4.732
REMARK  Name = min_compound945.pdb
REMARK  8 active torsions:
REMARK  status: ('A' for Active; 'I' for Inactive)
REMARK    1  A    between atoms: _1  and  _20
REMARK    2  A    between atoms: _2  and  _21
REMARK    3  A    between atoms: _4  and  _12
REMARK    4  A    between atoms: _10  and  _16
REMARK    5  A    between atoms: _12  and  _13
REMARK    6  A    between atoms: _13  and  _15
REMARK    7  A    between atoms: _16  and  _17
REMARK    8  A    between atoms: _17  and  _19
REMARK                            x       y       z     vdW  Elec       q    Type
REMARK                         _______ _______ _______ _____ _____    ______ ____
ROOT
ATOM      1  C   UNL     1     -14.209   6.665 -17.240  0.00  0.00    +0.100 C 
ATOM      2  C   UNL     1     -14.503   8.136 -17.288  0.00  0.00    +0.045 C 
ATOM      3  O   UNL     1     -14.069   6.063 -18.540  0.00  0.00    -0.361 OA
ATOM      4  C   UNL     1     -12.881   6.116 -17.728  0.00  0.00    +0.100 C 
ATOM      5  C   UNL     1     -11.821   7.023 -18.281  0.00  0.00    +0.045 C 
ATOM      6  C   UNL     1     -12.390   4.787 -17.228  0.00  0.00    +0.077 C 
ATOM      7  C   UNL     1     -13.454   3.871 -16.665  0.00  0.00    +0.005 A 
ATOM      8  C   UNL     1     -13.153   2.486 -16.550  0.00  0.00    +0.135 A 
ATOM      9  C   UNL     1     -14.149   1.647 -16.027  0.00  0.00    +0.050 A 
ATOM     10  C   UNL     1     -15.407   2.163 -15.572  0.00  0.00    +0.050 A 
ATOM     11  C   UNL     1     -15.704   3.535 -15.625  0.00  0.00    +0.135 A 
ATOM     12  C   UNL     1     -14.730   4.396 -16.201  0.00  0.00    +0.005 A 
ATOM     13  C   UNL     1     -15.031   5.876 -16.258  0.00  0.00    +0.077 C 
ENDROOT
BRANCH   8  14
ATOM     14  O   UNL     1     -11.836   1.976 -17.036  0.00  0.00    -0.426 OA
BRANCH  14  15
ATOM     15  C   UNL     1     -11.076   1.006 -16.356  0.00  0.00    +0.309 C 
ATOM     16  C   UNL     1     -11.079  -0.459 -16.675  0.00  0.00    +0.136 C 
ATOM     17  O   UNL     1     -10.319   1.344 -15.437  0.00  0.00    -0.251 OA
ENDBRANCH  14  15
ENDBRANCH   8  14
BRANCH  11  18
ATOM     18  O   UNL     1     -17.008   4.099 -15.163  0.00  0.00    -0.426 OA
BRANCH  18  19
ATOM     19  C   UNL     1     -17.398   4.162 -13.812  0.00  0.00    +0.309 C 
ATOM     20  C   UNL     1     -17.336   3.014 -12.849  0.00  0.00    +0.136 C 
ATOM     21  O   UNL     1     -17.855   5.215 -13.347  0.00  0.00    -0.251 OA
ENDBRANCH  18  19
ENDBRANCH  11  18
TORSDOF 4
ENDMDL
MODEL 7
REMARK VINA RESULT:      -6.2      2.925      6.238
REMARK  Name = min_compound945.pdb
REMARK  8 active torsions:
REMARK  status: ('A' for Active; 'I' for Inactive)
REMARK    1  A    between atoms: _1  and  _20
REMARK    2  A    between atoms: _2  and  _21
REMARK    3  A    between atoms: _4  and  _12
REMARK    4  A    between atoms: _10  and  _16
REMARK    5  A    between atoms: _12  and  _13
REMARK    6  A    between atoms: _13  and  _15
REMARK    7  A    between atoms: _16  and  _17
REMARK    8  A    between atoms: _17  and  _19
REMARK                            x       y       z     vdW  Elec       q    Type
REMARK                         _______ _______ _______ _____ _____    ______ ____
ROOT
ATOM      1  C   UNL     1     -13.974   2.770 -21.017  0.00  0.00    +0.100 C 
ATOM      2  C   UNL     1     -14.302   2.032 -22.282  0.00  0.00    +0.045 C 
ATOM      3  O   UNL     1     -13.336   4.041 -21.240  0.00  0.00    -0.361 OA
ATOM      4  C   UNL     1     -14.660   4.080 -20.675  0.00  0.00    +0.100 C 
ATOM      5  C   UNL     1     -15.683   4.684 -21.591  0.00  0.00    +0.045 C 
ATOM      6  C   UNL     1     -14.730   4.538 -19.245  0.00  0.00    +0.077 C 
ATOM      7  C   UNL     1     -13.704   3.928 -18.317  0.00  0.00    +0.005 A 
ATOM      8  C   UNL     1     -13.444   4.584 -17.083  0.00  0.00    +0.135 A 
ATOM      9  C   UNL     1     -12.489   4.008 -16.230  0.00  0.00    +0.050 A 
ATOM     10  C   UNL     1     -11.835   2.774 -16.555  0.00  0.00    +0.050 A 
ATOM     11  C   UNL     1     -12.119   2.080 -17.743  0.00  0.00    +0.135 A 
ATOM     12  C   UNL     1     -13.042   2.673 -18.646  0.00  0.00    +0.005 A 
ATOM     13  C   UNL     1     -13.365   1.935 -19.925  0.00  0.00    +0.077 C 
ENDROOT
BRANCH   8  14
ATOM     14  O   UNL     1     -14.136   5.870 -16.772  0.00  0.00    -0.426 OA
BRANCH  14  15
ATOM     15  C   UNL     1     -13.770   7.108 -17.333  0.00  0.00    +0.309 C 
ATOM     16  C   UNL     1     -14.679   8.296 -17.447  0.00  0.00    +0.136 C 
ATOM     17  O   UNL     1     -12.619   7.284 -17.752  0.00  0.00    -0.251 OA
ENDBRANCH  14  15
ENDBRANCH   8  14
BRANCH  11  18
ATOM     18  O   UNL     1     -11.448   0.796 -18.110  0.00  0.00    -0.426 OA
BRANCH  18  19
ATOM     19  C   UNL     1     -11.038  -0.168 -17.170  0.00  0.00    +0.309 C 
ATOM     20  C   UNL     1      -9.614  -0.428 -16.777  0.00  0.00    +0.136 C 
ATOM     21  O   UNL     1     -11.876  -0.895 -16.620  0.00  0.00    -0.251 OA
ENDBRANCH  18  19
ENDBRANCH  11  18
TORSDOF 4
ENDMDL
MODEL 8
REMARK VINA RESULT:      -6.2      2.845      5.292
REMARK  Name = min_compound945.pdb
REMARK  8 active torsions:
REMARK  status: ('A' for Active; 'I' for Inactive)
REMARK    1  A    between atoms: _1  and  _20
REMARK    2  A    between atoms: _2  and  _21
REMARK    3  A    between atoms: _4  and  _12
REMARK    4  A    between atoms: _10  and  _16
REMARK    5  A    between atoms: _12  and  _13
REMARK    6  A    between atoms: _13  and  _15
REMARK    7  A    between atoms: _16  and  _17
REMARK    8  A    between atoms: _17  and  _19
REMARK                            x       y       z     vdW  Elec       q    Type
REMARK                         _______ _______ _______ _____ _____    ______ ____
ROOT
ATOM      1  C   UNL     1     -11.205   1.914 -16.243  0.00  0.00    +0.100 C 
ATOM      2  C   UNL     1     -10.360   1.552 -15.057  0.00  0.00    +0.045 C 
ATOM      3  O   UNL     1     -10.445   2.405 -17.363  0.00  0.00    -0.361 OA
ATOM      4  C   UNL     1     -11.102   1.136 -17.542  0.00  0.00    +0.100 C 
ATOM      5  C   UNL     1     -10.150  -0.015 -17.686  0.00  0.00    +0.045 C 
ATOM      6  C   UNL     1     -12.250   1.143 -18.513  0.00  0.00    +0.077 C 
ATOM      7  C   UNL     1     -13.215   2.299 -18.368  0.00  0.00    +0.005 A 
ATOM      8  C   UNL     1     -14.069   2.598 -19.465  0.00  0.00    +0.135 A 
ATOM      9  C   UNL     1     -14.960   3.673 -19.318  0.00  0.00    +0.050 A 
ATOM     10  C   UNL     1     -15.053   4.413 -18.094  0.00  0.00    +0.050 A 
ATOM     11  C   UNL     1     -14.258   4.098 -16.980  0.00  0.00    +0.135 A 
ATOM     12  C   UNL     1     -13.311   3.048 -17.124  0.00  0.00    +0.005 A 
ATOM     13  C   UNL     1     -12.454   2.691 -15.931  0.00  0.00    +0.077 C 
ENDROOT
BRANCH   8  14
ATOM     14  O   UNL     1     -13.948   1.814 -20.729  0.00  0.00    -0.426 OA
BRANCH  14  15
ATOM     15  C   UNL     1     -13.281   2.283 -21.877  0.00  0.00    +0.309 C 
ATOM     16  C   UNL     1     -13.152   3.728 -22.258  0.00  0.00    +0.136 C 
ATOM     17  O   UNL     1     -12.726   1.484 -22.643  0.00  0.00    -0.251 OA
ENDBRANCH  14  15
ENDBRANCH   8  14
BRANCH  11  18
ATOM     18  O   UNL     1     -14.330   4.856 -15.694  0.00  0.00    -0.426 OA
BRANCH  18  19
ATOM     19  C   UNL     1     -15.333   4.661 -14.726  0.00  0.00    +0.309 C 
ATOM     20  C   UNL     1     -15.875   3.324 -14.312  0.00  0.00    +0.136 C 
ATOM     21  O   UNL     1     -15.854   5.635 -14.166  0.00  0.00    -0.251 OA
ENDBRANCH  18  19
ENDBRANCH  11  18
TORSDOF 4
ENDMDL
MODEL 9
REMARK VINA RESULT:      -6.1      9.285     12.068
REMARK  Name = min_compound945.pdb
REMARK  8 active torsions:
REMARK  status: ('A' for Active; 'I' for Inactive)
REMARK    1  A    between atoms: _1  and  _20
REMARK    2  A    between atoms: _2  and  _21
REMARK    3  A    between atoms: _4  and  _12
REMARK    4  A    between atoms: _10  and  _16
REMARK    5  A    between atoms: _12  and  _13
REMARK    6  A    between atoms: _13  and  _15
REMARK    7  A    between atoms: _16  and  _17
REMARK    8  A    between atoms: _17  and  _19
REMARK                            x       y       z     vdW  Elec       q    Type
REMARK                         _______ _______ _______ _____ _____    ______ ____
ROOT
ATOM      1  C   UNL     1     -15.060   1.203  -4.520  0.00  0.00    +0.100 C 
ATOM      2  C   UNL     1     -14.491   0.462  -3.345  0.00  0.00    +0.045 C 
ATOM      3  O   UNL     1     -14.079   1.544  -5.516  0.00  0.00    -0.361 OA
ATOM      4  C   UNL     1     -15.075   0.580  -5.904  0.00  0.00    +0.100 C 
ATOM      5  C   UNL     1     -14.516  -0.791  -6.145  0.00  0.00    +0.045 C 
ATOM      6  C   UNL     1     -16.062   1.060  -6.931  0.00  0.00    +0.077 C 
ATOM      7  C   UNL     1     -16.632   2.440  -6.689  0.00  0.00    +0.005 A 
ATOM      8  C   UNL     1     -17.238   3.115  -7.783  0.00  0.00    +0.135 A 
ATOM      9  C   UNL     1     -17.763   4.395  -7.546  0.00  0.00    +0.050 A 
ATOM     10  C   UNL     1     -17.743   4.987  -6.240  0.00  0.00    +0.050 A 
ATOM     11  C   UNL     1     -17.199   4.315  -5.133  0.00  0.00    +0.135 A 
ATOM     12  C   UNL     1     -16.614   3.040  -5.362  0.00  0.00    +0.005 A 
ATOM     13  C   UNL     1     -16.032   2.299  -4.180  0.00  0.00    +0.077 C 
ENDROOT
BRANCH   8  14
ATOM     14  O   UNL     1     -17.241   2.477  -9.133  0.00  0.00    -0.426 OA
BRANCH  14  15
ATOM     15  C   UNL     1     -16.750   3.104 -10.293  0.00  0.00    +0.309 C 
ATOM     16  C   UNL     1     -17.458   3.126 -11.616  0.00  0.00    +0.136 C 
ATOM     17  O   UNL     1     -15.674   3.716 -10.261  0.00  0.00    -0.251 OA
ENDBRANCH  14  15
ENDBRANCH   8  14
BRANCH  11  18
ATOM     18  O   UNL     1     -17.160   4.910  -3.763  0.00  0.00    -0.426 OA
BRANCH  18  19
ATOM     19  C   UNL     1     -16.888   6.267  -3.508  0.00  0.00    +0.309 C 
ATOM     20  C   UNL     1     -17.921   7.296  -3.155  0.00  0.00    +0.136 C 
ATOM     21  O   UNL     1     -15.728   6.694  -3.592  0.00  0.00    -0.251 OA
ENDBRANCH  18  19
ENDBRANCH  11  18
TORSDOF 4
ENDMDL
