MODEL 1
REMARK VINA RESULT:      -7.5      0.000      0.000
REMARK  Name = min_compound992.pdb
REMARK  8 active torsions:
REMARK  status: ('A' for Active; 'I' for Inactive)
REMARK    1  A    between atoms: _1  and  _2
REMARK    2  A    between atoms: _1  and  _18
REMARK    3  A    between atoms: _2  and  _7
REMARK    4  A    between atoms: _3  and  _4
REMARK    5  A    between atoms: _3  and  _6
REMARK    6  A    between atoms: _4  and  _12
REMARK    7  A    between atoms: _5  and  _24
REMARK    8  A    between atoms: _9  and  _23
REMARK                            x       y       z     vdW  Elec       q    Type
REMARK                         _______ _______ _______ _____ _____    ______ ____
ROOT
ATOM      1  C   UNL     1     -12.759   5.668 -19.268  0.00  0.00    +0.130 A 
ATOM      2  C   UNL     1     -11.945   6.316 -18.321  0.00  0.00    +0.143 A 
ATOM      3  C   UNL     1     -11.513   5.678 -17.164  0.00  0.00    +0.049 A 
ATOM      4  C   UNL     1     -11.883   4.354 -16.936  0.00  0.00    +0.032 A 
ATOM      5  C   UNL     1     -12.666   3.659 -17.870  0.00  0.00    +0.088 A 
ATOM      6  C   UNL     1     -13.102   4.329 -19.027  0.00  0.00    +0.165 A 
ENDROOT
BRANCH   2   7
ATOM      7  O   UNL     1     -11.543   7.614 -18.509  0.00  0.00    -0.505 OA
ATOM      8  H   UNL     1     -12.353   8.105 -18.751  0.00  0.00    +0.292 HD
ENDBRANCH   2   7
BRANCH   1   9
ATOM      9  N   UNL     1     -13.166   6.319 -20.454  0.00  0.00    -0.260 N 
ATOM     10  H   UNL     1     -13.996   6.839 -20.551  0.00  0.00    +0.170 HD
BRANCH   9  11
ATOM     11  N   UNL     1     -12.326   6.146 -21.366  0.00  0.00    -0.266 N 
ATOM     12  H   UNL     1     -11.874   5.291 -21.552  0.00  0.00    +0.170 HD
BRANCH  11  13
ATOM     13  C   UNL     1     -12.110   7.334 -22.092  0.00  0.00    +0.044 A 
ATOM     14  C   UNL     1     -10.838   7.919 -22.071  0.00  0.00    +0.024 A 
ATOM     15  C   UNL     1     -10.590   9.112 -22.755  0.00  0.00    +0.002 A 
ATOM     16  C   UNL     1     -11.618   9.737 -23.458  0.00  0.00    +0.000 A 
ATOM     17  C   UNL     1     -12.893   9.175 -23.475  0.00  0.00    +0.002 A 
ATOM     18  C   UNL     1     -13.138   7.980 -22.791  0.00  0.00    +0.024 A 
ENDBRANCH  11  13
ENDBRANCH   9  11
ENDBRANCH   1   9
BRANCH   6  19
ATOM     19  O   UNL     1     -13.877   3.657 -19.946  0.00  0.00    -0.503 OA
ATOM     20  H   UNL     1     -14.341   2.953 -19.454  0.00  0.00    +0.292 HD
ENDBRANCH   6  19
BRANCH   5  21
ATOM     21  N   UNL     1     -13.063   2.324 -17.638  0.00  0.00    -0.263 N 
ATOM     22  H   UNL     1     -13.761   2.047 -17.002  0.00  0.00    +0.170 HD
BRANCH  21  23
ATOM     23  N   UNL     1     -12.400   1.544 -18.359  0.00  0.00    -0.266 N 
ATOM     24  H   UNL     1     -12.476   1.490 -19.338  0.00  0.00    +0.170 HD
BRANCH  23  25
ATOM     25  C   UNL     1     -11.532   0.753 -17.583  0.00  0.00    +0.044 A 
ATOM     26  C   UNL     1     -10.150   0.927 -17.719  0.00  0.00    +0.024 A 
ATOM     27  C   UNL     1      -9.256   0.136 -16.993  0.00  0.00    +0.002 A 
ATOM     28  C   UNL     1      -9.739  -0.845 -16.129  0.00  0.00    +0.000 A 
ATOM     29  C   UNL     1     -11.113  -1.039 -15.993  0.00  0.00    +0.002 A 
ATOM     30  C   UNL     1     -12.004  -0.247 -16.722  0.00  0.00    +0.024 A 
ENDBRANCH  23  25
ENDBRANCH  21  23
ENDBRANCH   5  21
TORSDOF 8
ENDMDL
MODEL 2
REMARK VINA RESULT:      -7.4      4.455      7.736
REMARK  Name = min_compound992.pdb
REMARK  8 active torsions:
REMARK  status: ('A' for Active; 'I' for Inactive)
REMARK    1  A    between atoms: _1  and  _2
REMARK    2  A    between atoms: _1  and  _18
REMARK    3  A    between atoms: _2  and  _7
REMARK    4  A    between atoms: _3  and  _4
REMARK    5  A    between atoms: _3  and  _6
REMARK    6  A    between atoms: _4  and  _12
REMARK    7  A    between atoms: _5  and  _24
REMARK    8  A    between atoms: _9  and  _23
REMARK                            x       y       z     vdW  Elec       q    Type
REMARK                         _______ _______ _______ _____ _____    ______ ____
ROOT
ATOM      1  C   UNL     1     -13.463   2.977 -17.548  0.00  0.00    +0.130 A 
ATOM      2  C   UNL     1     -14.694   3.180 -18.198  0.00  0.00    +0.143 A 
ATOM      3  C   UNL     1     -15.807   3.672 -17.525  0.00  0.00    +0.049 A 
ATOM      4  C   UNL     1     -15.703   3.986 -16.172  0.00  0.00    +0.032 A 
ATOM      5  C   UNL     1     -14.485   3.829 -15.492  0.00  0.00    +0.088 A 
ATOM      6  C   UNL     1     -13.376   3.319 -16.191  0.00  0.00    +0.165 A 
ENDROOT
BRANCH   2   7
ATOM      7  O   UNL     1     -14.841   2.901 -19.533  0.00  0.00    -0.505 OA
ATOM      8  H   UNL     1     -13.934   2.771 -19.873  0.00  0.00    +0.292 HD
ENDBRANCH   2   7
BRANCH   1   9
ATOM      9  N   UNL     1     -12.332   2.505 -18.252  0.00  0.00    -0.260 N 
ATOM     10  H   UNL     1     -11.584   3.070 -18.553  0.00  0.00    +0.170 HD
BRANCH   9  11
ATOM     11  N   UNL     1     -12.410   1.270 -18.442  0.00  0.00    -0.266 N 
ATOM     12  H   UNL     1     -13.021   0.843 -19.085  0.00  0.00    +0.170 HD
BRANCH  11  13
ATOM     13  C   UNL     1     -11.508   0.570 -17.616  0.00  0.00    +0.044 A 
ATOM     14  C   UNL     1     -10.135   0.799 -17.767  0.00  0.00    +0.024 A 
ATOM     15  C   UNL     1      -9.206   0.105 -16.987  0.00  0.00    +0.002 A 
ATOM     16  C   UNL     1      -9.644  -0.833 -16.054  0.00  0.00    +0.000 A 
ATOM     17  C   UNL     1     -11.008  -1.082 -15.904  0.00  0.00    +0.002 A 
ATOM     18  C   UNL     1     -11.935  -0.386 -16.685  0.00  0.00    +0.024 A 
ENDBRANCH  11  13
ENDBRANCH   9  11
ENDBRANCH   1   9
BRANCH   6  19
ATOM     19  O   UNL     1     -12.179   3.154 -15.530  0.00  0.00    -0.503 OA
ATOM     20  H   UNL     1     -11.503   2.996 -16.216  0.00  0.00    +0.292 HD
ENDBRANCH   6  19
BRANCH   5  21
ATOM     21  N   UNL     1     -14.375   4.125 -14.117  0.00  0.00    -0.263 N 
ATOM     22  H   UNL     1     -13.648   3.813 -13.530  0.00  0.00    +0.170 HD
BRANCH  21  23
ATOM     23  N   UNL     1     -15.334   4.840 -13.748  0.00  0.00    -0.266 N 
ATOM     24  H   UNL     1     -15.665   5.624 -14.242  0.00  0.00    +0.170 HD
BRANCH  23  25
ATOM     25  C   UNL     1     -15.876   4.375 -12.536  0.00  0.00    +0.044 A 
ATOM     26  C   UNL     1     -15.353   4.856 -11.329  0.00  0.00    +0.024 A 
ATOM     27  C   UNL     1     -15.840   4.392 -10.105  0.00  0.00    +0.002 A 
ATOM     28  C   UNL     1     -16.851   3.434 -10.077  0.00  0.00    +0.000 A 
ATOM     29  C   UNL     1     -17.373   2.936 -11.271  0.00  0.00    +0.002 A 
ATOM     30  C   UNL     1     -16.883   3.401 -12.494  0.00  0.00    +0.024 A 
ENDBRANCH  23  25
ENDBRANCH  21  23
ENDBRANCH   5  21
TORSDOF 8
ENDMDL
MODEL 3
REMARK VINA RESULT:      -7.4      3.890      6.728
REMARK  Name = min_compound992.pdb
REMARK  8 active torsions:
REMARK  status: ('A' for Active; 'I' for Inactive)
REMARK    1  A    between atoms: _1  and  _2
REMARK    2  A    between atoms: _1  and  _18
REMARK    3  A    between atoms: _2  and  _7
REMARK    4  A    between atoms: _3  and  _4
REMARK    5  A    between atoms: _3  and  _6
REMARK    6  A    between atoms: _4  and  _12
REMARK    7  A    between atoms: _5  and  _24
REMARK    8  A    between atoms: _9  and  _23
REMARK                            x       y       z     vdW  Elec       q    Type
REMARK                         _______ _______ _______ _____ _____    ______ ____
ROOT
ATOM      1  C   UNL     1     -14.470   5.565 -16.340  0.00  0.00    +0.130 A 
ATOM      2  C   UNL     1     -14.138   6.752 -17.017  0.00  0.00    +0.143 A 
ATOM      3  C   UNL     1     -12.940   6.893 -17.708  0.00  0.00    +0.049 A 
ATOM      4  C   UNL     1     -12.044   5.826 -17.746  0.00  0.00    +0.032 A 
ATOM      5  C   UNL     1     -12.350   4.612 -17.112  0.00  0.00    +0.088 A 
ATOM      6  C   UNL     1     -13.563   4.497 -16.409  0.00  0.00    +0.165 A 
ENDROOT
BRANCH   2   7
ATOM      7  O   UNL     1     -14.993   7.825 -17.022  0.00  0.00    -0.505 OA
ATOM      8  H   UNL     1     -14.883   8.248 -16.147  0.00  0.00    +0.292 HD
ENDBRANCH   2   7
BRANCH   1   9
ATOM      9  N   UNL     1     -15.705   5.426 -15.667  0.00  0.00    -0.260 N 
ATOM     10  H   UNL     1     -16.516   5.031 -16.062  0.00  0.00    +0.170 HD
BRANCH   9  11
ATOM     11  N   UNL     1     -15.628   5.873 -14.501  0.00  0.00    -0.266 N 
ATOM     12  H   UNL     1     -15.269   6.759 -14.267  0.00  0.00    +0.170 HD
BRANCH  11  13
ATOM     13  C   UNL     1     -16.122   4.942 -13.565  0.00  0.00    +0.044 A 
ATOM     14  C   UNL     1     -15.700   5.033 -12.233  0.00  0.00    +0.024 A 
ATOM     15  C   UNL     1     -16.145   4.112 -11.280  0.00  0.00    +0.002 A 
ATOM     16  C   UNL     1     -17.008   3.085 -11.655  0.00  0.00    +0.000 A 
ATOM     17  C   UNL     1     -17.424   2.973 -12.981  0.00  0.00    +0.002 A 
ATOM     18  C   UNL     1     -16.979   3.896 -13.932  0.00  0.00    +0.024 A 
ENDBRANCH  11  13
ENDBRANCH   9  11
ENDBRANCH   1   9
BRANCH   6  19
ATOM     19  O   UNL     1     -13.868   3.312 -15.777  0.00  0.00    -0.503 OA
ATOM     20  H   UNL     1     -13.125   3.120 -15.174  0.00  0.00    +0.292 HD
ENDBRANCH   6  19
BRANCH   5  21
ATOM     21  N   UNL     1     -11.441   3.533 -17.127  0.00  0.00    -0.263 N 
ATOM     22  H   UNL     1     -10.532   3.557 -16.750  0.00  0.00    +0.170 HD
BRANCH  21  23
ATOM     23  N   UNL     1     -11.956   2.540 -17.689  0.00  0.00    -0.266 N 
ATOM     24  H   UNL     1     -12.739   2.581 -18.284  0.00  0.00    +0.170 HD
BRANCH  23  25
ATOM     25  C   UNL     1     -11.268   1.357 -17.359  0.00  0.00    +0.044 A 
ATOM     26  C   UNL     1     -11.976   0.302 -16.770  0.00  0.00    +0.024 A 
ATOM     27  C   UNL     1     -11.322  -0.874 -16.395  0.00  0.00    +0.002 A 
ATOM     28  C   UNL     1      -9.949  -1.001 -16.597  0.00  0.00    +0.000 A 
ATOM     29  C   UNL     1      -9.229   0.047 -17.169  0.00  0.00    +0.002 A 
ATOM     30  C   UNL     1      -9.886   1.222 -17.543  0.00  0.00    +0.024 A 
ENDBRANCH  23  25
ENDBRANCH  21  23
ENDBRANCH   5  21
TORSDOF 8
ENDMDL
MODEL 4
REMARK VINA RESULT:      -7.3      3.970      7.459
REMARK  Name = min_compound992.pdb
REMARK  8 active torsions:
REMARK  status: ('A' for Active; 'I' for Inactive)
REMARK    1  A    between atoms: _1  and  _2
REMARK    2  A    between atoms: _1  and  _18
REMARK    3  A    between atoms: _2  and  _7
REMARK    4  A    between atoms: _3  and  _4
REMARK    5  A    between atoms: _3  and  _6
REMARK    6  A    between atoms: _4  and  _12
REMARK    7  A    between atoms: _5  and  _24
REMARK    8  A    between atoms: _9  and  _23
REMARK                            x       y       z     vdW  Elec       q    Type
REMARK                         _______ _______ _______ _____ _____    ______ ____
ROOT
ATOM      1  C   UNL     1     -13.238   3.875 -17.625  0.00  0.00    +0.130 A 
ATOM      2  C   UNL     1     -13.803   4.523 -18.739  0.00  0.00    +0.143 A 
ATOM      3  C   UNL     1     -14.905   5.362 -18.619  0.00  0.00    +0.049 A 
ATOM      4  C   UNL     1     -15.462   5.582 -17.362  0.00  0.00    +0.032 A 
ATOM      5  C   UNL     1     -14.910   4.983 -16.219  0.00  0.00    +0.088 A 
ATOM      6  C   UNL     1     -13.803   4.128 -16.366  0.00  0.00    +0.165 A 
ENDROOT
BRANCH   2   7
ATOM      7  O   UNL     1     -13.281   4.349 -19.995  0.00  0.00    -0.505 OA
ATOM      8  H   UNL     1     -14.040   4.103 -20.561  0.00  0.00    +0.292 HD
ENDBRANCH   2   7
BRANCH   1   9
ATOM      9  N   UNL     1     -12.099   3.049 -17.758  0.00  0.00    -0.260 N 
ATOM     10  H   UNL     1     -11.170   3.356 -17.653  0.00  0.00    +0.170 HD
BRANCH   9  11
ATOM     11  N   UNL     1     -12.433   1.873 -18.026  0.00  0.00    -0.266 N 
ATOM     12  H   UNL     1     -13.209   1.627 -18.579  0.00  0.00    +0.170 HD
BRANCH  11  13
ATOM     13  C   UNL     1     -11.551   0.946 -17.434  0.00  0.00    +0.044 A 
ATOM     14  C   UNL     1     -10.174   1.098 -17.635  0.00  0.00    +0.024 A 
ATOM     15  C   UNL     1      -9.268   0.185 -17.089  0.00  0.00    +0.002 A 
ATOM     16  C   UNL     1      -9.734  -0.896 -16.345  0.00  0.00    +0.000 A 
ATOM     17  C   UNL     1     -11.104  -1.069 -16.149  0.00  0.00    +0.002 A 
ATOM     18  C   UNL     1     -12.008  -0.154 -16.696  0.00  0.00    +0.024 A 
ENDBRANCH  11  13
ENDBRANCH   9  11
ENDBRANCH   1   9
BRANCH   6  19
ATOM     19  O   UNL     1     -13.259   3.529 -15.252  0.00  0.00    -0.503 OA
ATOM     20  H   UNL     1     -12.296   3.484 -15.404  0.00  0.00    +0.292 HD
ENDBRANCH   6  19
BRANCH   5  21
ATOM     21  N   UNL     1     -15.479   5.183 -14.944  0.00  0.00    -0.263 N 
ATOM     22  H   UNL     1     -15.394   6.008 -14.412  0.00  0.00    +0.170 HD
BRANCH  21  23
ATOM     23  N   UNL     1     -16.109   4.162 -14.584  0.00  0.00    -0.266 N 
ATOM     24  H   UNL     1     -16.555   3.538 -15.201  0.00  0.00    +0.170 HD
BRANCH  23  25
ATOM     25  C   UNL     1     -16.095   4.026 -13.184  0.00  0.00    +0.044 A 
ATOM     26  C   UNL     1     -17.045   3.198 -12.573  0.00  0.00    +0.024 A 
ATOM     27  C   UNL     1     -17.087   3.064 -11.183  0.00  0.00    +0.002 A 
ATOM     28  C   UNL     1     -16.182   3.767 -10.390  0.00  0.00    +0.000 A 
ATOM     29  C   UNL     1     -15.239   4.605 -10.983  0.00  0.00    +0.002 A 
ATOM     30  C   UNL     1     -15.201   4.738 -12.374  0.00  0.00    +0.024 A 
ENDBRANCH  23  25
ENDBRANCH  21  23
ENDBRANCH   5  21
TORSDOF 8
ENDMDL
MODEL 5
REMARK VINA RESULT:      -7.3      1.299      7.715
REMARK  Name = min_compound992.pdb
REMARK  8 active torsions:
REMARK  status: ('A' for Active; 'I' for Inactive)
REMARK    1  A    between atoms: _1  and  _2
REMARK    2  A    between atoms: _1  and  _18
REMARK    3  A    between atoms: _2  and  _7
REMARK    4  A    between atoms: _3  and  _4
REMARK    5  A    between atoms: _3  and  _6
REMARK    6  A    between atoms: _4  and  _12
REMARK    7  A    between atoms: _5  and  _24
REMARK    8  A    between atoms: _9  and  _23
REMARK                            x       y       z     vdW  Elec       q    Type
REMARK                         _______ _______ _______ _____ _____    ______ ____
ROOT
ATOM      1  C   UNL     1     -12.668   3.465 -17.952  0.00  0.00    +0.130 A 
ATOM      2  C   UNL     1     -11.953   4.194 -16.985  0.00  0.00    +0.143 A 
ATOM      3  C   UNL     1     -11.587   5.520 -17.188  0.00  0.00    +0.049 A 
ATOM      4  C   UNL     1     -11.946   6.154 -18.376  0.00  0.00    +0.032 A 
ATOM      5  C   UNL     1     -12.688   5.474 -19.354  0.00  0.00    +0.088 A 
ATOM      6  C   UNL     1     -13.037   4.129 -19.131  0.00  0.00    +0.165 A 
ENDROOT
BRANCH   2   7
ATOM      7  O   UNL     1     -11.590   3.619 -15.794  0.00  0.00    -0.505 OA
ATOM      8  H   UNL     1     -11.795   2.668 -15.892  0.00  0.00    +0.292 HD
ENDBRANCH   2   7
BRANCH   1   9
ATOM      9  N   UNL     1     -13.061   2.127 -17.719  0.00  0.00    -0.260 N 
ATOM     10  H   UNL     1     -13.759   1.852 -17.082  0.00  0.00    +0.170 HD
BRANCH   9  11
ATOM     11  N   UNL     1     -12.399   1.340 -18.433  0.00  0.00    -0.266 N 
ATOM     12  H   UNL     1     -12.507   1.248 -19.407  0.00  0.00    +0.170 HD
BRANCH  11  13
ATOM     13  C   UNL     1     -11.481   0.601 -17.661  0.00  0.00    +0.044 A 
ATOM     14  C   UNL     1     -11.970  -0.317 -16.723  0.00  0.00    +0.024 A 
ATOM     15  C   UNL     1     -11.094  -1.048 -15.917  0.00  0.00    +0.002 A 
ATOM     16  C   UNL     1      -9.719  -0.860 -16.036  0.00  0.00    +0.000 A 
ATOM     17  C   UNL     1      -9.218   0.062 -16.955  0.00  0.00    +0.002 A 
ATOM     18  C   UNL     1     -10.097   0.792 -17.760  0.00  0.00    +0.024 A 
ENDBRANCH  11  13
ENDBRANCH   9  11
ENDBRANCH   1   9
BRANCH   6  19
ATOM     19  O   UNL     1     -13.759   3.451 -20.089  0.00  0.00    -0.503 OA
ATOM     20  H   UNL     1     -14.688   3.458 -19.791  0.00  0.00    +0.292 HD
ENDBRANCH   6  19
BRANCH   5  21
ATOM     21  N   UNL     1     -13.040   6.100 -20.568  0.00  0.00    -0.263 N 
ATOM     22  H   UNL     1     -13.625   6.888 -20.647  0.00  0.00    +0.170 HD
BRANCH  21  23
ATOM     23  N   UNL     1     -12.500   5.510 -21.532  0.00  0.00    -0.266 N 
ATOM     24  H   UNL     1     -12.646   4.563 -21.756  0.00  0.00    +0.170 HD
BRANCH  23  25
ATOM     25  C   UNL     1     -11.660   6.379 -22.252  0.00  0.00    +0.044 A 
ATOM     26  C   UNL     1     -11.022   5.907 -23.406  0.00  0.00    +0.024 A 
ATOM     27  C   UNL     1     -10.152   6.728 -24.127  0.00  0.00    +0.002 A 
ATOM     28  C   UNL     1      -9.905   8.029 -23.694  0.00  0.00    +0.000 A 
ATOM     29  C   UNL     1     -10.522   8.509 -22.539  0.00  0.00    +0.002 A 
ATOM     30  C   UNL     1     -11.391   7.685 -21.819  0.00  0.00    +0.024 A 
ENDBRANCH  23  25
ENDBRANCH  21  23
ENDBRANCH   5  21
TORSDOF 8
ENDMDL
MODEL 6
REMARK VINA RESULT:      -7.1      3.840      6.967
REMARK  Name = min_compound992.pdb
REMARK  8 active torsions:
REMARK  status: ('A' for Active; 'I' for Inactive)
REMARK    1  A    between atoms: _1  and  _2
REMARK    2  A    between atoms: _1  and  _18
REMARK    3  A    between atoms: _2  and  _7
REMARK    4  A    between atoms: _3  and  _4
REMARK    5  A    between atoms: _3  and  _6
REMARK    6  A    between atoms: _4  and  _12
REMARK    7  A    between atoms: _5  and  _24
REMARK    8  A    between atoms: _9  and  _23
REMARK                            x       y       z     vdW  Elec       q    Type
REMARK                         _______ _______ _______ _____ _____    ______ ____
ROOT
ATOM      1  C   UNL     1     -14.865   4.492 -16.667  0.00  0.00    +0.130 A 
ATOM      2  C   UNL     1     -15.508   5.019 -17.801  0.00  0.00    +0.143 A 
ATOM      3  C   UNL     1     -15.058   4.752 -19.090  0.00  0.00    +0.049 A 
ATOM      4  C   UNL     1     -13.947   3.930 -19.270  0.00  0.00    +0.032 A 
ATOM      5  C   UNL     1     -13.296   3.357 -18.167  0.00  0.00    +0.088 A 
ATOM      6  C   UNL     1     -13.762   3.650 -16.872  0.00  0.00    +0.165 A 
ENDROOT
BRANCH   2   7
ATOM      7  O   UNL     1     -16.613   5.821 -17.677  0.00  0.00    -0.505 OA
ATOM      8  H   UNL     1     -16.918   5.987 -18.591  0.00  0.00    +0.292 HD
ENDBRANCH   2   7
BRANCH   1   9
ATOM      9  N   UNL     1     -15.351   4.746 -15.364  0.00  0.00    -0.260 N 
ATOM     10  H   UNL     1     -15.275   5.609 -14.897  0.00  0.00    +0.170 HD
BRANCH   9  11
ATOM     11  N   UNL     1     -15.892   3.724 -14.885  0.00  0.00    -0.266 N 
ATOM     12  H   UNL     1     -16.230   2.970 -15.420  0.00  0.00    +0.170 HD
BRANCH  11  13
ATOM     13  C   UNL     1     -15.954   3.793 -13.479  0.00  0.00    +0.044 A 
ATOM     14  C   UNL     1     -16.949   3.070 -12.809  0.00  0.00    +0.024 A 
ATOM     15  C   UNL     1     -17.062   3.134 -11.417  0.00  0.00    +0.002 A 
ATOM     16  C   UNL     1     -16.187   3.932 -10.684  0.00  0.00    +0.000 A 
ATOM     17  C   UNL     1     -15.201   4.670 -11.339  0.00  0.00    +0.002 A 
ATOM     18  C   UNL     1     -15.089   4.603 -12.731  0.00  0.00    +0.024 A 
ENDBRANCH  11  13
ENDBRANCH   9  11
ENDBRANCH   1   9
BRANCH   6  19
ATOM     19  O   UNL     1     -13.124   3.097 -15.784  0.00  0.00    -0.503 OA
ATOM     20  H   UNL     1     -13.216   3.739 -15.054  0.00  0.00    +0.292 HD
ENDBRANCH   6  19
BRANCH   5  21
ATOM     21  N   UNL     1     -12.159   2.539 -18.337  0.00  0.00    -0.263 N 
ATOM     22  H   UNL     1     -11.243   2.871 -18.480  0.00  0.00    +0.170 HD
BRANCH  21  23
ATOM     23  N   UNL     1     -12.481   1.330 -18.280  0.00  0.00    -0.266 N 
ATOM     24  H   UNL     1     -13.283   0.948 -18.702  0.00  0.00    +0.170 HD
BRANCH  23  25
ATOM     25  C   UNL     1     -11.545   0.592 -17.533  0.00  0.00    +0.044 A 
ATOM     26  C   UNL     1     -10.178   0.798 -17.761  0.00  0.00    +0.024 A 
ATOM     27  C   UNL     1      -9.219   0.058 -17.066  0.00  0.00    +0.002 A 
ATOM     28  C   UNL     1      -9.619  -0.903 -16.140  0.00  0.00    +0.000 A 
ATOM     29  C   UNL     1     -10.976  -1.129 -15.912  0.00  0.00    +0.002 A 
ATOM     30  C   UNL     1     -11.933  -0.388 -16.610  0.00  0.00    +0.024 A 
ENDBRANCH  23  25
ENDBRANCH  21  23
ENDBRANCH   5  21
TORSDOF 8
ENDMDL
MODEL 7
REMARK VINA RESULT:      -6.9     11.235     14.934
REMARK  Name = min_compound992.pdb
REMARK  8 active torsions:
REMARK  status: ('A' for Active; 'I' for Inactive)
REMARK    1  A    between atoms: _1  and  _2
REMARK    2  A    between atoms: _1  and  _18
REMARK    3  A    between atoms: _2  and  _7
REMARK    4  A    between atoms: _3  and  _4
REMARK    5  A    between atoms: _3  and  _6
REMARK    6  A    between atoms: _4  and  _12
REMARK    7  A    between atoms: _5  and  _24
REMARK    8  A    between atoms: _9  and  _23
REMARK                            x       y       z     vdW  Elec       q    Type
REMARK                         _______ _______ _______ _____ _____    ______ ____
ROOT
ATOM      1  C   UNL     1     -17.499   0.788  -6.008  0.00  0.00    +0.130 A 
ATOM      2  C   UNL     1     -16.964  -0.385  -6.572  0.00  0.00    +0.143 A 
ATOM      3  C   UNL     1     -16.719  -0.498  -7.936  0.00  0.00    +0.049 A 
ATOM      4  C   UNL     1     -16.998   0.582  -8.772  0.00  0.00    +0.032 A 
ATOM      5  C   UNL     1     -17.501   1.782  -8.247  0.00  0.00    +0.088 A 
ATOM      6  C   UNL     1     -17.752   1.869  -6.865  0.00  0.00    +0.165 A 
ENDROOT
BRANCH   2   7
ATOM      7  O   UNL     1     -16.660  -1.469  -5.789  0.00  0.00    -0.505 OA
ATOM      8  H   UNL     1     -17.515  -1.911  -5.614  0.00  0.00    +0.292 HD
ENDBRANCH   2   7
BRANCH   1   9
ATOM      9  N   UNL     1     -17.714   0.899  -4.615  0.00  0.00    -0.260 N 
ATOM     10  H   UNL     1     -18.253   0.273  -4.081  0.00  0.00    +0.170 HD
BRANCH   9  11
ATOM     11  N   UNL     1     -17.126   1.904  -4.154  0.00  0.00    -0.266 N 
ATOM     12  H   UNL     1     -17.536   2.793  -4.059  0.00  0.00    +0.170 HD
BRANCH  11  13
ATOM     13  C   UNL     1     -15.800   1.594  -3.790  0.00  0.00    +0.044 A 
ATOM     14  C   UNL     1     -14.810   2.571  -3.948  0.00  0.00    +0.024 A 
ATOM     15  C   UNL     1     -13.478   2.296  -3.625  0.00  0.00    +0.002 A 
ATOM     16  C   UNL     1     -13.125   1.034  -3.151  0.00  0.00    +0.000 A 
ATOM     17  C   UNL     1     -14.098   0.047  -3.003  0.00  0.00    +0.002 A 
ATOM     18  C   UNL     1     -15.429   0.326  -3.326  0.00  0.00    +0.024 A 
ENDBRANCH  11  13
ENDBRANCH   9  11
ENDBRANCH   1   9
BRANCH   6  19
ATOM     19  O   UNL     1     -18.253   3.041  -6.342  0.00  0.00    -0.503 OA
ATOM     20  H   UNL     1     -17.751   3.767  -6.758  0.00  0.00    +0.292 HD
ENDBRANCH   6  19
BRANCH   5  21
ATOM     21  N   UNL     1     -17.805   2.875  -9.087  0.00  0.00    -0.263 N 
ATOM     22  H   UNL     1     -18.678   3.031  -9.513  0.00  0.00    +0.170 HD
BRANCH  21  23
ATOM     23  N   UNL     1     -16.804   3.617  -9.212  0.00  0.00    -0.266 N 
ATOM     24  H   UNL     1     -16.332   4.046  -8.463  0.00  0.00    +0.170 HD
BRANCH  23  25
ATOM     25  C   UNL     1     -16.443   3.756 -10.565  0.00  0.00    +0.044 A 
ATOM     26  C   UNL     1     -15.391   4.616 -10.903  0.00  0.00    +0.024 A 
ATOM     27  C   UNL     1     -15.027   4.809 -12.238  0.00  0.00    +0.002 A 
ATOM     28  C   UNL     1     -15.720   4.148 -13.250  0.00  0.00    +0.000 A 
ATOM     29  C   UNL     1     -16.779   3.299 -12.930  0.00  0.00    +0.002 A 
ATOM     30  C   UNL     1     -17.141   3.109 -11.594  0.00  0.00    +0.024 A 
ENDBRANCH  23  25
ENDBRANCH  21  23
ENDBRANCH   5  21
TORSDOF 8
ENDMDL
MODEL 8
REMARK VINA RESULT:      -6.7     11.060     14.588
REMARK  Name = min_compound992.pdb
REMARK  8 active torsions:
REMARK  status: ('A' for Active; 'I' for Inactive)
REMARK    1  A    between atoms: _1  and  _2
REMARK    2  A    between atoms: _1  and  _18
REMARK    3  A    between atoms: _2  and  _7
REMARK    4  A    between atoms: _3  and  _4
REMARK    5  A    between atoms: _3  and  _6
REMARK    6  A    between atoms: _4  and  _12
REMARK    7  A    between atoms: _5  and  _24
REMARK    8  A    between atoms: _9  and  _23
REMARK                            x       y       z     vdW  Elec       q    Type
REMARK                         _______ _______ _______ _____ _____    ______ ____
ROOT
ATOM      1  C   UNL     1     -17.656   1.901  -6.473  0.00  0.00    +0.130 A 
ATOM      2  C   UNL     1     -18.909   2.536  -6.551  0.00  0.00    +0.143 A 
ATOM      3  C   UNL     1     -19.212   3.439  -7.563  0.00  0.00    +0.049 A 
ATOM      4  C   UNL     1     -18.258   3.718  -8.539  0.00  0.00    +0.032 A 
ATOM      5  C   UNL     1     -17.007   3.082  -8.519  0.00  0.00    +0.088 A 
ATOM      6  C   UNL     1     -16.718   2.181  -7.477  0.00  0.00    +0.165 A 
ENDROOT
BRANCH   2   7
ATOM      7  O   UNL     1     -19.886   2.283  -5.622  0.00  0.00    -0.505 OA
ATOM      8  H   UNL     1     -20.173   1.364  -5.791  0.00  0.00    +0.292 HD
ENDBRANCH   2   7
BRANCH   1   9
ATOM      9  N   UNL     1     -17.372   0.962  -5.455  0.00  0.00    -0.260 N 
ATOM     10  H   UNL     1     -17.324  -0.012  -5.590  0.00  0.00    +0.170 HD
BRANCH   9  11
ATOM     11  N   UNL     1     -17.189   1.538  -4.359  0.00  0.00    -0.266 N 
ATOM     12  H   UNL     1     -17.890   2.012  -3.856  0.00  0.00    +0.170 HD
BRANCH  11  13
ATOM     13  C   UNL     1     -15.850   1.418  -3.938  0.00  0.00    +0.044 A 
ATOM     14  C   UNL     1     -15.020   2.545  -3.992  0.00  0.00    +0.024 A 
ATOM     15  C   UNL     1     -13.678   2.462  -3.611  0.00  0.00    +0.002 A 
ATOM     16  C   UNL     1     -13.151   1.246  -3.183  0.00  0.00    +0.000 A 
ATOM     17  C   UNL     1     -13.961   0.112  -3.138  0.00  0.00    +0.002 A 
ATOM     18  C   UNL     1     -15.303   0.198  -3.519  0.00  0.00    +0.024 A 
ENDBRANCH  11  13
ENDBRANCH   9  11
ENDBRANCH   1   9
BRANCH   6  19
ATOM     19  O   UNL     1     -15.490   1.557  -7.445  0.00  0.00    -0.503 OA
ATOM     20  H   UNL     1     -15.177   1.514  -8.368  0.00  0.00    +0.292 HD
ENDBRANCH   6  19
BRANCH   5  21
ATOM     21  N   UNL     1     -16.026   3.372  -9.490  0.00  0.00    -0.263 N 
ATOM     22  H   UNL     1     -15.169   2.896  -9.585  0.00  0.00    +0.170 HD
BRANCH  21  23
ATOM     23  N   UNL     1     -16.401   4.321 -10.215  0.00  0.00    -0.266 N 
ATOM     24  H   UNL     1     -16.772   5.167  -9.876  0.00  0.00    +0.170 HD
BRANCH  23  25
ATOM     25  C   UNL     1     -16.222   4.019 -11.578  0.00  0.00    +0.044 A 
ATOM     26  C   UNL     1     -17.087   3.104 -12.190  0.00  0.00    +0.024 A 
ATOM     27  C   UNL     1     -16.920   2.751 -13.531  0.00  0.00    +0.002 A 
ATOM     28  C   UNL     1     -15.878   3.305 -14.271  0.00  0.00    +0.000 A 
ATOM     29  C   UNL     1     -15.000   4.207 -13.672  0.00  0.00    +0.002 A 
ATOM     30  C   UNL     1     -15.169   4.558 -12.330  0.00  0.00    +0.024 A 
ENDBRANCH  23  25
ENDBRANCH  21  23
ENDBRANCH   5  21
TORSDOF 8
ENDMDL
MODEL 9
REMARK VINA RESULT:      -6.7     11.667     16.014
REMARK  Name = min_compound992.pdb
REMARK  8 active torsions:
REMARK  status: ('A' for Active; 'I' for Inactive)
REMARK    1  A    between atoms: _1  and  _2
REMARK    2  A    between atoms: _1  and  _18
REMARK    3  A    between atoms: _2  and  _7
REMARK    4  A    between atoms: _3  and  _4
REMARK    5  A    between atoms: _3  and  _6
REMARK    6  A    between atoms: _4  and  _12
REMARK    7  A    between atoms: _5  and  _24
REMARK    8  A    between atoms: _9  and  _23
REMARK                            x       y       z     vdW  Elec       q    Type
REMARK                         _______ _______ _______ _____ _____    ______ ____
ROOT
ATOM      1  C   UNL     1     -15.630   0.354  -5.838  0.00  0.00    +0.130 A 
ATOM      2  C   UNL     1     -15.537  -0.820  -6.609  0.00  0.00    +0.143 A 
ATOM      3  C   UNL     1     -16.106  -0.913  -7.874  0.00  0.00    +0.049 A 
ATOM      4  C   UNL     1     -16.779   0.186  -8.404  0.00  0.00    +0.032 A 
ATOM      5  C   UNL     1     -16.866   1.387  -7.684  0.00  0.00    +0.088 A 
ATOM      6  C   UNL     1     -16.293   1.455  -6.400  0.00  0.00    +0.165 A 
ENDROOT
BRANCH   2   7
ATOM      7  O   UNL     1     -14.874  -1.923  -6.137  0.00  0.00    -0.505 OA
ATOM      8  H   UNL     1     -13.936  -1.784  -6.375  0.00  0.00    +0.292 HD
ENDBRANCH   2   7
BRANCH   1   9
ATOM      9  N   UNL     1     -15.021   0.445  -4.566  0.00  0.00    -0.260 N 
ATOM     10  H   UNL     1     -14.063   0.617  -4.416  0.00  0.00    +0.170 HD
BRANCH   9  11
ATOM     11  N   UNL     1     -15.864   0.278  -3.657  0.00  0.00    -0.266 N 
ATOM     12  H   UNL     1     -16.596   0.903  -3.455  0.00  0.00    +0.170 HD
BRANCH  11  13
ATOM     13  C   UNL     1     -15.629  -0.924  -2.959  0.00  0.00    +0.044 A 
ATOM     14  C   UNL     1     -14.357  -1.156  -2.422  0.00  0.00    +0.024 A 
ATOM     15  C   UNL     1     -14.073  -2.347  -1.748  0.00  0.00    +0.002 A 
ATOM     16  C   UNL     1     -15.060  -3.322  -1.615  0.00  0.00    +0.000 A 
ATOM     17  C   UNL     1     -16.326  -3.111  -2.158  0.00  0.00    +0.002 A 
ATOM     18  C   UNL     1     -16.607  -1.918  -2.831  0.00  0.00    +0.024 A 
ENDBRANCH  11  13
ENDBRANCH   9  11
ENDBRANCH   1   9
BRANCH   6  19
ATOM     19  O   UNL     1     -16.381   2.626  -5.682  0.00  0.00    -0.503 OA
ATOM     20  H   UNL     1     -17.061   3.171  -6.123  0.00  0.00    +0.292 HD
ENDBRANCH   6  19
BRANCH   5  21
ATOM     21  N   UNL     1     -17.562   2.499  -8.203  0.00  0.00    -0.263 N 
ATOM     22  H   UNL     1     -18.536   2.540  -8.341  0.00  0.00    +0.170 HD
BRANCH  21  23
ATOM     23  N   UNL     1     -16.763   3.428  -8.462  0.00  0.00    -0.266 N 
ATOM     24  H   UNL     1     -16.282   3.954  -7.784  0.00  0.00    +0.170 HD
BRANCH  23  25
ATOM     25  C   UNL     1     -16.644   3.620  -9.851  0.00  0.00    +0.044 A 
ATOM     26  C   UNL     1     -17.591   3.036 -10.702  0.00  0.00    +0.024 A 
ATOM     27  C   UNL     1     -17.487   3.174 -12.088  0.00  0.00    +0.002 A 
ATOM     28  C   UNL     1     -16.426   3.892 -12.637  0.00  0.00    +0.000 A 
ATOM     29  C   UNL     1     -15.469   4.468 -11.803  0.00  0.00    +0.002 A 
ATOM     30  C   UNL     1     -15.575   4.327 -10.417  0.00  0.00    +0.024 A 
ENDBRANCH  23  25
ENDBRANCH  21  23
ENDBRANCH   5  21
TORSDOF 8
ENDMDL
