MODEL 1
REMARK VINA RESULT:      -7.2      0.000      0.000
REMARK  Name = min_compound932.pdb
REMARK  7 active torsions:
REMARK  status: ('A' for Active; 'I' for Inactive)
REMARK    1  A    between atoms: _3  and  _5
REMARK    2  A    between atoms: _6  and  _11
REMARK    3  A    between atoms: _7  and  _15
REMARK    4  A    between atoms: _11  and  _12
REMARK    5  A    between atoms: _11  and  _13
REMARK    6  A    between atoms: _11  and  _14
REMARK    7  A    between atoms: _16  and  _17
REMARK                            x       y       z     vdW  Elec       q    Type
REMARK                         _______ _______ _______ _____ _____    ______ ____
ROOT
ATOM      1  C   UNL     1     -11.890   0.706 -16.837  0.00  0.00    +0.068 A 
ATOM      2  C   UNL     1     -11.389   1.717 -17.664  0.00  0.00    +0.068 A 
ATOM      3  C   UNL     1     -12.330   2.729 -17.639  0.00  0.00    +0.125 A 
ATOM      4  N   UNL     1     -13.308   2.288 -16.753  0.00  0.00    -0.245 N 
ATOM      5  N   UNL     1     -13.046   1.045 -16.276  0.00  0.00    -0.174 NA
ENDROOT
BRANCH   3   6
ATOM      6  N   UNL     1     -12.349   3.936 -18.333  0.00  0.00    -0.254 N 
ATOM      7  H   UNL     1     -12.590   3.940 -19.310  0.00  0.00    +0.158 HD
ATOM      8  C   UNL     1     -11.781   5.087 -17.841  0.00  0.00    +0.309 C 
ATOM      9  N   UNL     1     -11.830   6.202 -18.630  0.00  0.00    -0.269 N 
ATOM     10  H   UNL     1     -11.171   6.892 -18.288  0.00  0.00    +0.156 HD
ATOM     11  O   UNL     1     -11.156   5.189 -16.787  0.00  0.00    -0.252 OA
BRANCH   9  12
ATOM     12  C   UNL     1     -12.610   6.588 -19.729  0.00  0.00    +0.035 A 
ATOM     13  C   UNL     1     -11.925   6.894 -20.912  0.00  0.00    +0.023 A 
ATOM     14  C   UNL     1     -12.617   7.288 -22.058  0.00  0.00    +0.002 A 
ATOM     15  C   UNL     1     -14.004   7.398 -22.027  0.00  0.00    +0.000 A 
ATOM     16  C   UNL     1     -14.692   7.136 -20.844  0.00  0.00    +0.002 A 
ATOM     17  C   UNL     1     -13.994   6.748 -19.694  0.00  0.00    +0.023 A 
ENDBRANCH   9  12
ENDBRANCH   3   6
BRANCH   4  18
ATOM     18  C   UNL     1     -14.550   2.947 -16.299  0.00  0.00    +0.057 C 
ATOM     19  C   UNL     1     -15.353   3.448 -17.512  0.00  0.00    +0.036 C 
ATOM     20  C   UNL     1     -14.242   4.108 -15.335  0.00  0.00    +0.036 C 
ATOM     21  C   UNL     1     -15.467   1.968 -15.514  0.00  0.00    +0.036 C 
ENDBRANCH   4  18
BRANCH   1  24
ATOM     22  C   UNL     1      -9.943  -0.666 -15.771  0.00  0.00    +0.010 C 
ATOM     23  C   UNL     1      -9.825  -0.843 -17.245  0.00  0.00    +0.010 C 
ATOM     24  C   UNL     1     -11.192  -0.629 -16.629  0.00  0.00    +0.040 C 
ENDBRANCH   1  24
TORSDOF 4
ENDMDL
MODEL 2
REMARK VINA RESULT:      -6.7      1.823      2.194
REMARK  Name = min_compound932.pdb
REMARK  7 active torsions:
REMARK  status: ('A' for Active; 'I' for Inactive)
REMARK    1  A    between atoms: _3  and  _5
REMARK    2  A    between atoms: _6  and  _11
REMARK    3  A    between atoms: _7  and  _15
REMARK    4  A    between atoms: _11  and  _12
REMARK    5  A    between atoms: _11  and  _13
REMARK    6  A    between atoms: _11  and  _14
REMARK    7  A    between atoms: _16  and  _17
REMARK                            x       y       z     vdW  Elec       q    Type
REMARK                         _______ _______ _______ _____ _____    ______ ____
ROOT
ATOM      1  C   UNL     1     -12.005   0.824 -16.955  0.00  0.00    +0.068 A 
ATOM      2  C   UNL     1     -11.722   1.440 -18.179  0.00  0.00    +0.068 A 
ATOM      3  C   UNL     1     -12.499   2.582 -18.218  0.00  0.00    +0.125 A 
ATOM      4  N   UNL     1     -13.156   2.611 -16.992  0.00  0.00    -0.245 N 
ATOM      5  N   UNL     1     -12.866   1.528 -16.228  0.00  0.00    -0.174 NA
ENDROOT
BRANCH   3   6
ATOM      6  N   UNL     1     -12.639   3.522 -19.236  0.00  0.00    -0.254 N 
ATOM      7  H   UNL     1     -12.168   4.408 -19.159  0.00  0.00    +0.158 HD
ATOM      8  C   UNL     1     -13.611   3.433 -20.204  0.00  0.00    +0.309 C 
ATOM      9  N   UNL     1     -13.674   4.435 -21.131  0.00  0.00    -0.269 N 
ATOM     10  H   UNL     1     -14.562   4.399 -21.615  0.00  0.00    +0.156 HD
ATOM     11  O   UNL     1     -14.488   2.573 -20.269  0.00  0.00    -0.252 OA
BRANCH   9  12
ATOM     12  C   UNL     1     -12.777   5.423 -21.563  0.00  0.00    +0.035 A 
ATOM     13  C   UNL     1     -12.190   5.235 -22.822  0.00  0.00    +0.023 A 
ATOM     14  C   UNL     1     -11.285   6.165 -23.335  0.00  0.00    +0.002 A 
ATOM     15  C   UNL     1     -10.943   7.286 -22.585  0.00  0.00    +0.000 A 
ATOM     16  C   UNL     1     -11.488   7.461 -21.315  0.00  0.00    +0.002 A 
ATOM     17  C   UNL     1     -12.390   6.523 -20.799  0.00  0.00    +0.023 A 
ENDBRANCH   9  12
ENDBRANCH   3   6
BRANCH   4  18
ATOM     18  C   UNL     1     -14.104   3.603 -16.442  0.00  0.00    +0.057 C 
ATOM     19  C   UNL     1     -15.521   3.326 -16.973  0.00  0.00    +0.036 C 
ATOM     20  C   UNL     1     -13.666   5.039 -16.784  0.00  0.00    +0.036 C 
ATOM     21  C   UNL     1     -14.173   3.532 -14.890  0.00  0.00    +0.036 C 
ENDBRANCH   4  18
BRANCH   1  24
ATOM     22  C   UNL     1     -10.121  -0.498 -15.725  0.00  0.00    +0.010 C 
ATOM     23  C   UNL     1     -10.094  -0.949 -17.144  0.00  0.00    +0.010 C 
ATOM     24  C   UNL     1     -11.406  -0.508 -16.529  0.00  0.00    +0.040 C 
ENDBRANCH   1  24
TORSDOF 4
ENDMDL
MODEL 3
REMARK VINA RESULT:      -6.6      2.237      6.605
REMARK  Name = min_compound932.pdb
REMARK  7 active torsions:
REMARK  status: ('A' for Active; 'I' for Inactive)
REMARK    1  A    between atoms: _3  and  _5
REMARK    2  A    between atoms: _6  and  _11
REMARK    3  A    between atoms: _7  and  _15
REMARK    4  A    between atoms: _11  and  _12
REMARK    5  A    between atoms: _11  and  _13
REMARK    6  A    between atoms: _11  and  _14
REMARK    7  A    between atoms: _16  and  _17
REMARK                            x       y       z     vdW  Elec       q    Type
REMARK                         _______ _______ _______ _____ _____    ______ ____
ROOT
ATOM      1  C   UNL     1     -15.489   5.131 -15.472  0.00  0.00    +0.068 A 
ATOM      2  C   UNL     1     -14.387   4.483 -14.903  0.00  0.00    +0.068 A 
ATOM      3  C   UNL     1     -13.672   3.952 -15.959  0.00  0.00    +0.125 A 
ATOM      4  N   UNL     1     -14.357   4.363 -17.099  0.00  0.00    -0.245 N 
ATOM      5  N   UNL     1     -15.475   5.070 -16.799  0.00  0.00    -0.174 NA
ENDROOT
BRANCH   3   6
ATOM      6  N   UNL     1     -12.522   3.165 -15.943  0.00  0.00    -0.254 N 
ATOM      7  H   UNL     1     -12.589   2.199 -15.671  0.00  0.00    +0.158 HD
ATOM      8  C   UNL     1     -11.256   3.697 -15.997  0.00  0.00    +0.309 C 
ATOM      9  N   UNL     1     -10.203   2.827 -15.936  0.00  0.00    -0.269 N 
ATOM     10  H   UNL     1      -9.352   3.334 -15.725  0.00  0.00    +0.156 HD
ATOM     11  O   UNL     1     -10.976   4.894 -16.012  0.00  0.00    -0.252 OA
BRANCH   9  12
ATOM     12  C   UNL     1     -10.061   1.450 -16.152  0.00  0.00    +0.035 A 
ATOM     13  C   UNL     1      -9.825   1.038 -17.471  0.00  0.00    +0.023 A 
ATOM     14  C   UNL     1      -9.671  -0.314 -17.782  0.00  0.00    +0.002 A 
ATOM     15  C   UNL     1      -9.771  -1.272 -16.777  0.00  0.00    +0.000 A 
ATOM     16  C   UNL     1     -10.047  -0.877 -15.470  0.00  0.00    +0.002 A 
ATOM     17  C   UNL     1     -10.208   0.479 -15.162  0.00  0.00    +0.023 A 
ENDBRANCH   9  12
ENDBRANCH   3   6
BRANCH   4  18
ATOM     18  C   UNL     1     -14.059   4.126 -18.527  0.00  0.00    +0.057 C 
ATOM     19  C   UNL     1     -15.282   4.492 -19.386  0.00  0.00    +0.036 C 
ATOM     20  C   UNL     1     -13.640   2.665 -18.772  0.00  0.00    +0.036 C 
ATOM     21  C   UNL     1     -12.873   5.002 -19.020  0.00  0.00    +0.036 C 
ENDBRANCH   4  18
BRANCH   1  24
ATOM     22  C   UNL     1     -16.414   7.267 -14.293  0.00  0.00    +0.010 C 
ATOM     23  C   UNL     1     -16.269   6.231 -13.233  0.00  0.00    +0.010 C 
ATOM     24  C   UNL     1     -16.580   5.804 -14.653  0.00  0.00    +0.040 C 
ENDBRANCH   1  24
TORSDOF 4
ENDMDL
MODEL 4
REMARK VINA RESULT:      -6.6      9.273     13.098
REMARK  Name = min_compound932.pdb
REMARK  7 active torsions:
REMARK  status: ('A' for Active; 'I' for Inactive)
REMARK    1  A    between atoms: _3  and  _5
REMARK    2  A    between atoms: _6  and  _11
REMARK    3  A    between atoms: _7  and  _15
REMARK    4  A    between atoms: _11  and  _12
REMARK    5  A    between atoms: _11  and  _13
REMARK    6  A    between atoms: _11  and  _14
REMARK    7  A    between atoms: _16  and  _17
REMARK                            x       y       z     vdW  Elec       q    Type
REMARK                         _______ _______ _______ _____ _____    ______ ____
ROOT
ATOM      1  C   UNL     1     -17.858   2.978 -10.257  0.00  0.00    +0.068 A 
ATOM      2  C   UNL     1     -16.695   2.403  -9.731  0.00  0.00    +0.068 A 
ATOM      3  C   UNL     1     -17.080   1.769  -8.565  0.00  0.00    +0.125 A 
ATOM      4  N   UNL     1     -18.457   1.952  -8.494  0.00  0.00    -0.245 N 
ATOM      5  N   UNL     1     -18.929   2.705  -9.520  0.00  0.00    -0.174 NA
ENDROOT
BRANCH   3   6
ATOM      6  N   UNL     1     -16.302   1.091  -7.629  0.00  0.00    -0.254 N 
ATOM      7  H   UNL     1     -15.678   1.611  -7.036  0.00  0.00    +0.158 HD
ATOM      8  C   UNL     1     -16.119  -0.271  -7.660  0.00  0.00    +0.309 C 
ATOM      9  N   UNL     1     -15.304  -0.820  -6.710  0.00  0.00    -0.269 N 
ATOM     10  H   UNL     1     -15.043  -1.759  -6.984  0.00  0.00    +0.156 HD
ATOM     11  O   UNL     1     -16.555  -1.039  -8.516  0.00  0.00    -0.252 OA
BRANCH   9  12
ATOM     12  C   UNL     1     -14.823  -0.386  -5.466  0.00  0.00    +0.035 A 
ATOM     13  C   UNL     1     -14.058   0.788  -5.460  0.00  0.00    +0.023 A 
ATOM     14  C   UNL     1     -13.537   1.295  -4.269  0.00  0.00    +0.002 A 
ATOM     15  C   UNL     1     -13.761   0.621  -3.071  0.00  0.00    +0.000 A 
ATOM     16  C   UNL     1     -14.485  -0.569  -3.073  0.00  0.00    +0.002 A 
ATOM     17  C   UNL     1     -15.000  -1.080  -4.270  0.00  0.00    +0.023 A 
ENDBRANCH   9  12
ENDBRANCH   3   6
BRANCH   4  18
ATOM     18  C   UNL     1     -19.431   1.481  -7.487  0.00  0.00    +0.057 C 
ATOM     19  C   UNL     1     -18.887   1.738  -6.071  0.00  0.00    +0.036 C 
ATOM     20  C   UNL     1     -19.753  -0.013  -7.681  0.00  0.00    +0.036 C 
ATOM     21  C   UNL     1     -20.786   2.232  -7.603  0.00  0.00    +0.036 C 
ENDBRANCH   4  18
BRANCH   1  24
ATOM     22  C   UNL     1     -17.690   3.148 -12.855  0.00  0.00    +0.010 C 
ATOM     23  C   UNL     1     -16.593   3.993 -12.307  0.00  0.00    +0.010 C 
ATOM     24  C   UNL     1     -17.875   3.832 -11.515  0.00  0.00    +0.040 C 
ENDBRANCH   1  24
TORSDOF 4
ENDMDL
MODEL 5
REMARK VINA RESULT:      -6.5      2.626      4.383
REMARK  Name = min_compound932.pdb
REMARK  7 active torsions:
REMARK  status: ('A' for Active; 'I' for Inactive)
REMARK    1  A    between atoms: _3  and  _5
REMARK    2  A    between atoms: _6  and  _11
REMARK    3  A    between atoms: _7  and  _15
REMARK    4  A    between atoms: _11  and  _12
REMARK    5  A    between atoms: _11  and  _13
REMARK    6  A    between atoms: _11  and  _14
REMARK    7  A    between atoms: _16  and  _17
REMARK                            x       y       z     vdW  Elec       q    Type
REMARK                         _______ _______ _______ _____ _____    ______ ____
ROOT
ATOM      1  C   UNL     1     -11.783   0.724 -17.371  0.00  0.00    +0.068 A 
ATOM      2  C   UNL     1     -12.366   1.393 -16.289  0.00  0.00    +0.068 A 
ATOM      3  C   UNL     1     -13.108   2.423 -16.836  0.00  0.00    +0.125 A 
ATOM      4  N   UNL     1     -12.972   2.273 -18.212  0.00  0.00    -0.245 N 
ATOM      5  N   UNL     1     -12.149   1.244 -18.537  0.00  0.00    -0.174 NA
ENDROOT
BRANCH   3   6
ATOM      6  N   UNL     1     -13.840   3.422 -16.197  0.00  0.00    -0.254 N 
ATOM      7  H   UNL     1     -13.401   4.305 -15.998  0.00  0.00    +0.158 HD
ATOM      8  C   UNL     1     -15.034   3.179 -15.563  0.00  0.00    +0.309 C 
ATOM      9  N   UNL     1     -15.643   4.231 -14.938  0.00  0.00    -0.269 N 
ATOM     10  H   UNL     1     -16.354   3.888 -14.304  0.00  0.00    +0.156 HD
ATOM     11  O   UNL     1     -15.571   2.080 -15.431  0.00  0.00    -0.252 OA
BRANCH   9  12
ATOM     12  C   UNL     1     -15.525   5.625 -15.035  0.00  0.00    +0.035 A 
ATOM     13  C   UNL     1     -15.803   6.364 -13.877  0.00  0.00    +0.023 A 
ATOM     14  C   UNL     1     -15.712   7.756 -13.878  0.00  0.00    +0.002 A 
ATOM     15  C   UNL     1     -15.361   8.427 -15.046  0.00  0.00    +0.000 A 
ATOM     16  C   UNL     1     -15.124   7.705 -16.214  0.00  0.00    +0.002 A 
ATOM     17  C   UNL     1     -15.222   6.309 -16.211  0.00  0.00    +0.023 A 
ENDBRANCH   9  12
ENDBRANCH   3   6
BRANCH   4  18
ATOM     18  C   UNL     1     -13.555   3.059 -19.319  0.00  0.00    +0.057 C 
ATOM     19  C   UNL     1     -13.433   2.279 -20.639  0.00  0.00    +0.036 C 
ATOM     20  C   UNL     1     -12.878   4.437 -19.439  0.00  0.00    +0.036 C 
ATOM     21  C   UNL     1     -15.066   3.341 -19.090  0.00  0.00    +0.036 C 
ENDBRANCH   4  18
BRANCH   1  24
ATOM     22  C   UNL     1      -9.885  -0.459 -16.026  0.00  0.00    +0.010 C 
ATOM     23  C   UNL     1      -9.341  -0.208 -17.390  0.00  0.00    +0.010 C 
ATOM     24  C   UNL     1     -10.826  -0.448 -17.214  0.00  0.00    +0.040 C 
ENDBRANCH   1  24
TORSDOF 4
ENDMDL
MODEL 6
REMARK VINA RESULT:      -6.5      1.714      6.443
REMARK  Name = min_compound932.pdb
REMARK  7 active torsions:
REMARK  status: ('A' for Active; 'I' for Inactive)
REMARK    1  A    between atoms: _3  and  _5
REMARK    2  A    between atoms: _6  and  _11
REMARK    3  A    between atoms: _7  and  _15
REMARK    4  A    between atoms: _11  and  _12
REMARK    5  A    between atoms: _11  and  _13
REMARK    6  A    between atoms: _11  and  _14
REMARK    7  A    between atoms: _16  and  _17
REMARK                            x       y       z     vdW  Elec       q    Type
REMARK                         _______ _______ _______ _____ _____    ______ ____
ROOT
ATOM      1  C   UNL     1     -14.687   5.865 -18.511  0.00  0.00    +0.068 A 
ATOM      2  C   UNL     1     -13.455   5.206 -18.585  0.00  0.00    +0.068 A 
ATOM      3  C   UNL     1     -13.421   4.341 -17.507  0.00  0.00    +0.125 A 
ATOM      4  N   UNL     1     -14.657   4.493 -16.887  0.00  0.00    -0.245 N 
ATOM      5  N   UNL     1     -15.423   5.436 -17.491  0.00  0.00    -0.174 NA
ENDROOT
BRANCH   3   6
ATOM      6  N   UNL     1     -12.400   3.493 -17.085  0.00  0.00    -0.254 N 
ATOM      7  H   UNL     1     -12.609   2.528 -16.889  0.00  0.00    +0.158 HD
ATOM      8  C   UNL     1     -11.184   3.955 -16.643  0.00  0.00    +0.309 C 
ATOM      9  N   UNL     1     -10.273   3.029 -16.219  0.00  0.00    -0.269 N 
ATOM     10  H   UNL     1      -9.542   3.486 -15.687  0.00  0.00    +0.156 HD
ATOM     11  O   UNL     1     -10.864   5.136 -16.513  0.00  0.00    -0.252 OA
BRANCH   9  12
ATOM     12  C   UNL     1     -10.123   1.648 -16.409  0.00  0.00    +0.035 A 
ATOM     13  C   UNL     1     -10.291   0.834 -15.281  0.00  0.00    +0.023 A 
ATOM     14  C   UNL     1     -10.160  -0.553 -15.374  0.00  0.00    +0.002 A 
ATOM     15  C   UNL     1      -9.841  -1.138 -16.595  0.00  0.00    +0.000 A 
ATOM     16  C   UNL     1      -9.630  -0.335 -17.714  0.00  0.00    +0.002 A 
ATOM     17  C   UNL     1      -9.755   1.056 -17.616  0.00  0.00    +0.023 A 
ENDBRANCH   9  12
ENDBRANCH   3   6
BRANCH   4  18
ATOM     18  C   UNL     1     -15.216   3.816 -15.698  0.00  0.00    +0.057 C 
ATOM     19  C   UNL     1     -15.209   2.292 -15.910  0.00  0.00    +0.036 C 
ATOM     20  C   UNL     1     -16.641   4.315 -15.393  0.00  0.00    +0.036 C 
ATOM     21  C   UNL     1     -14.376   4.107 -14.423  0.00  0.00    +0.036 C 
ENDBRANCH   4  18
BRANCH   1  24
ATOM     22  C   UNL     1     -15.922   6.570 -20.698  0.00  0.00    +0.010 C 
ATOM     23  C   UNL     1     -14.502   6.986 -20.865  0.00  0.00    +0.010 C 
ATOM     24  C   UNL     1     -15.111   6.959 -19.478  0.00  0.00    +0.040 C 
ENDBRANCH   1  24
TORSDOF 4
ENDMDL
MODEL 7
REMARK VINA RESULT:      -6.5      2.256      6.585
REMARK  Name = min_compound932.pdb
REMARK  7 active torsions:
REMARK  status: ('A' for Active; 'I' for Inactive)
REMARK    1  A    between atoms: _3  and  _5
REMARK    2  A    between atoms: _6  and  _11
REMARK    3  A    between atoms: _7  and  _15
REMARK    4  A    between atoms: _11  and  _12
REMARK    5  A    between atoms: _11  and  _13
REMARK    6  A    between atoms: _11  and  _14
REMARK    7  A    between atoms: _16  and  _17
REMARK                            x       y       z     vdW  Elec       q    Type
REMARK                         _______ _______ _______ _____ _____    ______ ____
ROOT
ATOM      1  C   UNL     1     -15.525   6.130 -17.771  0.00  0.00    +0.068 A 
ATOM      2  C   UNL     1     -14.287   5.546 -18.060  0.00  0.00    +0.068 A 
ATOM      3  C   UNL     1     -14.085   4.585 -17.087  0.00  0.00    +0.125 A 
ATOM      4  N   UNL     1     -15.239   4.612 -16.311  0.00  0.00    -0.245 N 
ATOM      5  N   UNL     1     -16.111   5.567 -16.720  0.00  0.00    -0.174 NA
ENDROOT
BRANCH   3   6
ATOM      6  N   UNL     1     -12.986   3.755 -16.878  0.00  0.00    -0.254 N 
ATOM      7  H   UNL     1     -13.129   2.831 -16.507  0.00  0.00    +0.158 HD
ATOM      8  C   UNL     1     -11.693   4.218 -16.877  0.00  0.00    +0.309 C 
ATOM      9  N   UNL     1     -10.698   3.315 -16.625  0.00  0.00    -0.269 N 
ATOM     10  H   UNL     1      -9.841   3.804 -16.396  0.00  0.00    +0.156 HD
ATOM     11  O   UNL     1     -11.346   5.392 -17.001  0.00  0.00    -0.252 OA
BRANCH   9  12
ATOM     12  C   UNL     1     -10.614   1.916 -16.671  0.00  0.00    +0.035 A 
ATOM     13  C   UNL     1     -10.180   1.272 -15.505  0.00  0.00    +0.023 A 
ATOM     14  C   UNL     1     -10.065  -0.118 -15.457  0.00  0.00    +0.002 A 
ATOM     15  C   UNL     1     -10.366  -0.878 -16.584  0.00  0.00    +0.000 A 
ATOM     16  C   UNL     1     -10.758  -0.244 -17.760  0.00  0.00    +0.002 A 
ATOM     17  C   UNL     1     -10.866   1.151 -17.808  0.00  0.00    +0.023 A 
ENDBRANCH   9  12
ENDBRANCH   3   6
BRANCH   4  18
ATOM     18  C   UNL     1     -15.619   3.796 -15.138  0.00  0.00    +0.057 C 
ATOM     19  C   UNL     1     -14.676   4.098 -13.961  0.00  0.00    +0.036 C 
ATOM     20  C   UNL     1     -15.599   2.294 -15.477  0.00  0.00    +0.036 C 
ATOM     21  C   UNL     1     -17.064   4.111 -14.662  0.00  0.00    +0.036 C 
ENDBRANCH   4  18
BRANCH   1  24
ATOM     22  C   UNL     1     -15.832   8.701 -18.094  0.00  0.00    +0.010 C 
ATOM     23  C   UNL     1     -17.198   8.132 -17.933  0.00  0.00    +0.010 C 
ATOM     24  C   UNL     1     -16.110   7.288 -18.565  0.00  0.00    +0.040 C 
ENDBRANCH   1  24
TORSDOF 4
ENDMDL
MODEL 8
REMARK VINA RESULT:      -6.3      3.428      6.869
REMARK  Name = min_compound932.pdb
REMARK  7 active torsions:
REMARK  status: ('A' for Active; 'I' for Inactive)
REMARK    1  A    between atoms: _3  and  _5
REMARK    2  A    between atoms: _6  and  _11
REMARK    3  A    between atoms: _7  and  _15
REMARK    4  A    between atoms: _11  and  _12
REMARK    5  A    between atoms: _11  and  _13
REMARK    6  A    between atoms: _11  and  _14
REMARK    7  A    between atoms: _16  and  _17
REMARK                            x       y       z     vdW  Elec       q    Type
REMARK                         _______ _______ _______ _____ _____    ______ ____
ROOT
ATOM      1  C   UNL     1     -16.219   5.492 -12.685  0.00  0.00    +0.068 A 
ATOM      2  C   UNL     1     -14.896   5.224 -13.053  0.00  0.00    +0.068 A 
ATOM      3  C   UNL     1     -14.966   4.315 -14.091  0.00  0.00    +0.125 A 
ATOM      4  N   UNL     1     -16.327   4.138 -14.321  0.00  0.00    -0.245 N 
ATOM      5  N   UNL     1     -17.091   4.845 -13.451  0.00  0.00    -0.174 NA
ENDROOT
BRANCH   3   6
ATOM      6  N   UNL     1     -13.937   3.679 -14.782  0.00  0.00    -0.254 N 
ATOM      7  H   UNL     1     -13.412   2.952 -14.326  0.00  0.00    +0.158 HD
ATOM      8  C   UNL     1     -13.403   4.178 -15.946  0.00  0.00    +0.309 C 
ATOM      9  N   UNL     1     -12.371   3.485 -16.514  0.00  0.00    -0.269 N 
ATOM     10  H   UNL     1     -11.902   4.069 -17.197  0.00  0.00    +0.156 HD
ATOM     11  O   UNL     1     -13.712   5.239 -16.485  0.00  0.00    -0.252 OA
BRANCH   9  12
ATOM     12  C   UNL     1     -11.888   2.175 -16.390  0.00  0.00    +0.035 A 
ATOM     13  C   UNL     1     -10.627   2.021 -15.798  0.00  0.00    +0.023 A 
ATOM     14  C   UNL     1     -10.065   0.755 -15.633  0.00  0.00    +0.002 A 
ATOM     15  C   UNL     1     -10.752  -0.372 -16.075  0.00  0.00    +0.000 A 
ATOM     16  C   UNL     1     -11.987  -0.227 -16.703  0.00  0.00    +0.002 A 
ATOM     17  C   UNL     1     -12.546   1.045 -16.874  0.00  0.00    +0.023 A 
ENDBRANCH   9  12
ENDBRANCH   3   6
BRANCH   4  18
ATOM     18  C   UNL     1     -17.024   3.304 -15.323  0.00  0.00    +0.057 C 
ATOM     19  C   UNL     1     -16.922   3.957 -16.712  0.00  0.00    +0.036 C 
ATOM     20  C   UNL     1     -18.497   3.082 -14.933  0.00  0.00    +0.036 C 
ATOM     21  C   UNL     1     -16.390   1.889 -15.433  0.00  0.00    +0.036 C 
ENDBRANCH   4  18
BRANCH   1  24
ATOM     22  C   UNL     1     -16.750   5.794 -10.148  0.00  0.00    +0.010 C 
ATOM     23  C   UNL     1     -17.963   6.241 -10.888  0.00  0.00    +0.010 C 
ATOM     24  C   UNL     1     -16.599   6.403 -11.528  0.00  0.00    +0.040 C 
ENDBRANCH   1  24
TORSDOF 4
ENDMDL
MODEL 9
REMARK VINA RESULT:      -6.2      2.079      6.789
REMARK  Name = min_compound932.pdb
REMARK  7 active torsions:
REMARK  status: ('A' for Active; 'I' for Inactive)
REMARK    1  A    between atoms: _3  and  _5
REMARK    2  A    between atoms: _6  and  _11
REMARK    3  A    between atoms: _7  and  _15
REMARK    4  A    between atoms: _11  and  _12
REMARK    5  A    between atoms: _11  and  _13
REMARK    6  A    between atoms: _11  and  _14
REMARK    7  A    between atoms: _16  and  _17
REMARK                            x       y       z     vdW  Elec       q    Type
REMARK                         _______ _______ _______ _____ _____    ______ ____
ROOT
ATOM      1  C   UNL     1     -12.764   6.520 -21.445  0.00  0.00    +0.068 A 
ATOM      2  C   UNL     1     -12.084   6.006 -20.335  0.00  0.00    +0.068 A 
ATOM      3  C   UNL     1     -12.848   4.949 -19.878  0.00  0.00    +0.125 A 
ATOM      4  N   UNL     1     -13.908   4.858 -20.775  0.00  0.00    -0.245 N 
ATOM      5  N   UNL     1     -13.863   5.827 -21.723  0.00  0.00    -0.174 NA
ENDROOT
BRANCH   3   6
ATOM      6  N   UNL     1     -12.653   4.132 -18.766  0.00  0.00    -0.254 N 
ATOM      7  H   UNL     1     -12.586   3.136 -18.891  0.00  0.00    +0.158 HD
ATOM      8  C   UNL     1     -12.834   4.573 -17.478  0.00  0.00    +0.309 C 
ATOM      9  N   UNL     1     -12.648   3.669 -16.469  0.00  0.00    -0.269 N 
ATOM     10  H   UNL     1     -13.053   4.026 -15.611  0.00  0.00    +0.156 HD
ATOM     11  O   UNL     1     -13.229   5.689 -17.145  0.00  0.00    -0.252 OA
BRANCH   9  12
ATOM     12  C   UNL     1     -11.994   2.433 -16.374  0.00  0.00    +0.035 A 
ATOM     13  C   UNL     1     -12.711   1.306 -16.797  0.00  0.00    +0.023 A 
ATOM     14  C   UNL     1     -12.141   0.033 -16.738  0.00  0.00    +0.002 A 
ATOM     15  C   UNL     1     -10.853  -0.128 -16.237  0.00  0.00    +0.000 A 
ATOM     16  C   UNL     1     -10.148   0.981 -15.774  0.00  0.00    +0.002 A 
ATOM     17  C   UNL     1     -10.724   2.256 -15.827  0.00  0.00    +0.023 A 
ENDBRANCH   9  12
ENDBRANCH   3   6
BRANCH   4  18
ATOM     18  C   UNL     1     -15.038   3.906 -20.822  0.00  0.00    +0.057 C 
ATOM     19  C   UNL     1     -14.507   2.465 -20.919  0.00  0.00    +0.036 C 
ATOM     20  C   UNL     1     -15.979   4.218 -21.999  0.00  0.00    +0.036 C 
ATOM     21  C   UNL     1     -15.911   3.988 -19.539  0.00  0.00    +0.036 C 
ENDBRANCH   4  18
BRANCH   1  24
ATOM     22  C   UNL     1     -11.321   7.543 -23.364  0.00  0.00    +0.010 C 
ATOM     23  C   UNL     1     -10.851   8.176 -22.101  0.00  0.00    +0.010 C 
ATOM     24  C   UNL     1     -12.297   7.741 -22.221  0.00  0.00    +0.040 C 
ENDBRANCH   1  24
TORSDOF 4
ENDMDL
