MODEL 1
REMARK VINA RESULT:      -6.3      0.000      0.000
REMARK  Name = min_compound958.pdb
REMARK  8 active torsions:
REMARK  status: ('A' for Active; 'I' for Inactive)
REMARK    1  A    between atoms: _8  and  _15
REMARK    2  A    between atoms: _9  and  _10
REMARK    3  A    between atoms: _10  and  _12
REMARK    4  A    between atoms: _12  and  _16
REMARK    5  A    between atoms: _14  and  _15
REMARK    6  A    between atoms: _14  and  _18
REMARK    7  A    between atoms: _16  and  _17
REMARK    8  A    between atoms: _18  and  _19
REMARK                            x       y       z     vdW  Elec       q    Type
REMARK                         _______ _______ _______ _____ _____    ______ ____
ROOT
ATOM      1  C   UNL     1     -11.382  -0.964 -16.079  0.00  0.00    +0.005 C 
ATOM      2  C   UNL     1      -9.911  -0.679 -16.008  0.00  0.00    +0.005 C 
ATOM      3  C   UNL     1     -10.031   0.813 -15.243  0.00  0.00    +0.042 C 
ATOM      4  C   UNL     1     -10.837   1.798 -16.043  0.00  0.00    -0.013 C 
ATOM      5  S   UNL     1     -10.760   3.502 -15.876  0.00  0.00    -0.106 S 
ATOM      6  C   UNL     1     -11.493   3.723 -17.433  0.00  0.00    +0.152 C 
ATOM      7  C   UNL     1     -12.279   2.593 -17.705  0.00  0.00    +0.155 C 
ATOM      8  C   UNL     1     -11.802   1.432 -16.946  0.00  0.00    -0.044 C 
ATOM      9  C   UNL     1     -12.178  -0.030 -17.071  0.00  0.00    +0.032 C 
ENDROOT
BRANCH   6  10
ATOM     10  N   UNL     1     -11.448   4.985 -18.069  0.00  0.00    -0.313 N 
ATOM     11  H   UNL     1     -10.545   5.181 -18.497  0.00  0.00    +0.149 HD
BRANCH  10  12
ATOM     12  C   UNL     1     -12.194   6.159 -17.953  0.00  0.00    +0.131 C 
ATOM     13  S   UNL     1     -13.649   6.086 -17.128  0.00  0.00    -0.019 S 
BRANCH  12  14
ATOM     14  N   UNL     1     -11.864   7.342 -18.582  0.00  0.00    -0.330 N 
ATOM     15  H   UNL     1     -11.824   8.225 -18.086  0.00  0.00    +0.147 HD
ATOM     16  C   UNL     1     -11.577   7.163 -20.044  0.00  0.00    +0.127 C 
ENDBRANCH  12  14
ENDBRANCH  10  12
ENDBRANCH   6  10
BRANCH   7  17
ATOM     17  C   UNL     1     -13.355   2.541 -18.690  0.00  0.00    +0.317 C 
ATOM     18  O   UNL     1     -14.488   2.951 -18.470  0.00  0.00    -0.250 OA
BRANCH  17  19
ATOM     19  O   UNL     1     -12.926   2.087 -19.906  0.00  0.00    -0.464 OA
BRANCH  19  20
ATOM     20  C   UNL     1     -13.942   1.957 -20.911  0.00  0.00    +0.229 C 
ATOM     21  C   UNL     1     -13.316   1.628 -22.257  0.00  0.00    +0.048 C 
ENDBRANCH  19  20
ENDBRANCH  17  19
ENDBRANCH   7  17
TORSDOF 6
ENDMDL
MODEL 2
REMARK VINA RESULT:      -6.3      2.938      3.635
REMARK  Name = min_compound958.pdb
REMARK  8 active torsions:
REMARK  status: ('A' for Active; 'I' for Inactive)
REMARK    1  A    between atoms: _8  and  _15
REMARK    2  A    between atoms: _9  and  _10
REMARK    3  A    between atoms: _10  and  _12
REMARK    4  A    between atoms: _12  and  _16
REMARK    5  A    between atoms: _14  and  _15
REMARK    6  A    between atoms: _14  and  _18
REMARK    7  A    between atoms: _16  and  _17
REMARK    8  A    between atoms: _18  and  _19
REMARK                            x       y       z     vdW  Elec       q    Type
REMARK                         _______ _______ _______ _____ _____    ______ ____
ROOT
ATOM      1  C   UNL     1      -9.784   0.115 -17.365  0.00  0.00    +0.005 C 
ATOM      2  C   UNL     1     -10.410  -0.724 -16.291  0.00  0.00    +0.005 C 
ATOM      3  C   UNL     1     -12.010  -0.364 -16.661  0.00  0.00    +0.042 C 
ATOM      4  C   UNL     1     -12.297   1.108 -16.573  0.00  0.00    -0.013 C 
ATOM      5  S   UNL     1     -13.851   1.801 -16.370  0.00  0.00    -0.106 S 
ATOM      6  C   UNL     1     -13.154   3.298 -15.841  0.00  0.00    +0.152 C 
ATOM      7  C   UNL     1     -11.874   3.404 -16.407  0.00  0.00    +0.155 C 
ATOM      8  C   UNL     1     -11.340   2.078 -16.736  0.00  0.00    -0.044 C 
ATOM      9  C   UNL     1      -9.941   1.671 -17.149  0.00  0.00    +0.032 C 
ENDROOT
BRANCH   6  10
ATOM     10  N   UNL     1     -13.955   4.269 -15.196  0.00  0.00    -0.313 N 
ATOM     11  H   UNL     1     -14.010   4.131 -14.189  0.00  0.00    +0.149 HD
BRANCH  10  12
ATOM     12  C   UNL     1     -14.961   5.138 -15.621  0.00  0.00    +0.131 C 
ATOM     13  S   UNL     1     -16.420   5.112 -14.801  0.00  0.00    -0.019 S 
BRANCH  12  14
ATOM     14  N   UNL     1     -14.866   5.925 -16.751  0.00  0.00    -0.330 N 
ATOM     15  H   UNL     1     -14.831   5.530 -17.683  0.00  0.00    +0.147 HD
ATOM     16  C   UNL     1     -14.827   7.391 -16.437  0.00  0.00    +0.127 C 
ENDBRANCH  12  14
ENDBRANCH  10  12
ENDBRANCH   6  10
BRANCH   7  17
ATOM     17  C   UNL     1     -11.123   4.648 -16.550  0.00  0.00    +0.317 C 
ATOM     18  O   UNL     1      -9.951   4.767 -16.216  0.00  0.00    -0.250 OA
BRANCH  17  19
ATOM     19  O   UNL     1     -11.841   5.617 -17.193  0.00  0.00    -0.464 OA
BRANCH  19  20
ATOM     20  C   UNL     1     -11.882   5.509 -18.623  0.00  0.00    +0.229 C 
ATOM     21  C   UNL     1     -11.906   6.891 -19.259  0.00  0.00    +0.048 C 
ENDBRANCH  19  20
ENDBRANCH  17  19
ENDBRANCH   7  17
TORSDOF 6
ENDMDL
MODEL 3
REMARK VINA RESULT:      -6.0      1.823      2.714
REMARK  Name = min_compound958.pdb
REMARK  8 active torsions:
REMARK  status: ('A' for Active; 'I' for Inactive)
REMARK    1  A    between atoms: _8  and  _15
REMARK    2  A    between atoms: _9  and  _10
REMARK    3  A    between atoms: _10  and  _12
REMARK    4  A    between atoms: _12  and  _16
REMARK    5  A    between atoms: _14  and  _15
REMARK    6  A    between atoms: _14  and  _18
REMARK    7  A    between atoms: _16  and  _17
REMARK    8  A    between atoms: _18  and  _19
REMARK                            x       y       z     vdW  Elec       q    Type
REMARK                         _______ _______ _______ _____ _____    ______ ____
ROOT
ATOM      1  C   UNL     1     -11.866  -0.672 -16.306  0.00  0.00    +0.005 C 
ATOM      2  C   UNL     1     -10.477  -0.524 -16.854  0.00  0.00    +0.005 C 
ATOM      3  C   UNL     1     -10.020   0.781 -15.898  0.00  0.00    +0.042 C 
ATOM      4  C   UNL     1     -10.916   1.971 -16.094  0.00  0.00    -0.013 C 
ATOM      5  S   UNL     1     -10.502   3.591 -15.721  0.00  0.00    -0.106 S 
ATOM      6  C   UNL     1     -11.776   4.188 -16.734  0.00  0.00    +0.152 C 
ATOM      7  C   UNL     1     -12.776   3.206 -16.797  0.00  0.00    +0.155 C 
ATOM      8  C   UNL     1     -12.218   1.879 -16.518  0.00  0.00    -0.044 C 
ATOM      9  C   UNL     1     -12.843   0.509 -16.684  0.00  0.00    +0.032 C 
ENDROOT
BRANCH   6  10
ATOM     10  N   UNL     1     -11.800   5.548 -17.122  0.00  0.00    -0.313 N 
ATOM     11  H   UNL     1     -11.639   6.184 -16.344  0.00  0.00    +0.149 HD
BRANCH  10  12
ATOM     12  C   UNL     1     -12.333   6.239 -18.211  0.00  0.00    +0.131 C 
ATOM     13  S   UNL     1     -13.633   7.257 -17.935  0.00  0.00    -0.019 S 
BRANCH  12  14
ATOM     14  N   UNL     1     -11.931   6.039 -19.517  0.00  0.00    -0.330 N 
ATOM     15  H   UNL     1     -11.043   6.378 -19.866  0.00  0.00    +0.147 HD
ATOM     16  C   UNL     1     -12.940   5.279 -20.325  0.00  0.00    +0.127 C 
ENDBRANCH  12  14
ENDBRANCH  10  12
ENDBRANCH   6  10
BRANCH   7  17
ATOM     17  C   UNL     1     -14.160   3.445 -17.195  0.00  0.00    +0.317 C 
ATOM     18  O   UNL     1     -14.654   2.984 -18.216  0.00  0.00    -0.250 OA
BRANCH  17  19
ATOM     19  O   UNL     1     -14.859   4.144 -16.250  0.00  0.00    -0.464 OA
BRANCH  19  20
ATOM     20  C   UNL     1     -15.017   3.485 -14.986  0.00  0.00    +0.229 C 
ATOM     21  C   UNL     1     -16.023   2.350 -15.103  0.00  0.00    +0.048 C 
ENDBRANCH  19  20
ENDBRANCH  17  19
ENDBRANCH   7  17
TORSDOF 6
ENDMDL
MODEL 4
REMARK VINA RESULT:      -5.6      2.948      3.892
REMARK  Name = min_compound958.pdb
REMARK  8 active torsions:
REMARK  status: ('A' for Active; 'I' for Inactive)
REMARK    1  A    between atoms: _8  and  _15
REMARK    2  A    between atoms: _9  and  _10
REMARK    3  A    between atoms: _10  and  _12
REMARK    4  A    between atoms: _12  and  _16
REMARK    5  A    between atoms: _14  and  _15
REMARK    6  A    between atoms: _14  and  _18
REMARK    7  A    between atoms: _16  and  _17
REMARK    8  A    between atoms: _18  and  _19
REMARK                            x       y       z     vdW  Elec       q    Type
REMARK                         _______ _______ _______ _____ _____    ______ ____
ROOT
ATOM      1  C   UNL     1     -10.116   0.732 -15.625  0.00  0.00    +0.005 C 
ATOM      2  C   UNL     1     -10.683  -0.532 -16.200  0.00  0.00    +0.005 C 
ATOM      3  C   UNL     1     -10.931   0.048 -17.758  0.00  0.00    +0.042 C 
ATOM      4  C   UNL     1     -11.855   1.233 -17.783  0.00  0.00    -0.013 C 
ATOM      5  S   UNL     1     -12.737   1.768 -19.150  0.00  0.00    -0.106 S 
ATOM      6  C   UNL     1     -13.813   2.682 -18.143  0.00  0.00    +0.152 C 
ATOM      7  C   UNL     1     -13.123   3.024 -16.971  0.00  0.00    +0.155 C 
ATOM      8  C   UNL     1     -12.027   2.083 -16.720  0.00  0.00    -0.044 C 
ATOM      9  C   UNL     1     -11.159   1.909 -15.489  0.00  0.00    +0.032 C 
ENDROOT
BRANCH   6  10
ATOM     10  N   UNL     1     -15.037   3.165 -18.662  0.00  0.00    -0.313 N 
ATOM     11  H   UNL     1     -15.731   2.430 -18.788  0.00  0.00    +0.149 HD
BRANCH  10  12
ATOM     12  C   UNL     1     -15.409   4.310 -19.368  0.00  0.00    +0.131 C 
ATOM     13  S   UNL     1     -16.568   4.151 -20.566  0.00  0.00    -0.019 S 
BRANCH  12  14
ATOM     14  N   UNL     1     -14.791   5.535 -19.221  0.00  0.00    -0.330 N 
ATOM     15  H   UNL     1     -15.103   6.219 -18.542  0.00  0.00    +0.147 HD
ATOM     16  C   UNL     1     -13.636   5.720 -20.160  0.00  0.00    +0.127 C 
ENDBRANCH  12  14
ENDBRANCH  10  12
ENDBRANCH   6  10
BRANCH   7  17
ATOM     17  C   UNL     1     -13.504   4.100 -16.060  0.00  0.00    +0.317 C 
ATOM     18  O   UNL     1     -13.677   5.256 -16.422  0.00  0.00    -0.250 OA
BRANCH  17  19
ATOM     19  O   UNL     1     -13.746   3.646 -14.793  0.00  0.00    -0.464 OA
BRANCH  19  20
ATOM     20  C   UNL     1     -15.087   3.832 -14.317  0.00  0.00    +0.229 C 
ATOM     21  C   UNL     1     -15.970   2.675 -14.754  0.00  0.00    +0.048 C 
ENDBRANCH  19  20
ENDBRANCH  17  19
ENDBRANCH   7  17
TORSDOF 6
ENDMDL
MODEL 5
REMARK VINA RESULT:      -5.6      3.115      4.489
REMARK  Name = min_compound958.pdb
REMARK  8 active torsions:
REMARK  status: ('A' for Active; 'I' for Inactive)
REMARK    1  A    between atoms: _8  and  _15
REMARK    2  A    between atoms: _9  and  _10
REMARK    3  A    between atoms: _10  and  _12
REMARK    4  A    between atoms: _12  and  _16
REMARK    5  A    between atoms: _14  and  _15
REMARK    6  A    between atoms: _14  and  _18
REMARK    7  A    between atoms: _16  and  _17
REMARK    8  A    between atoms: _18  and  _19
REMARK                            x       y       z     vdW  Elec       q    Type
REMARK                         _______ _______ _______ _____ _____    ______ ____
ROOT
ATOM      1  C   UNL     1      -9.422  -0.024 -17.465  0.00  0.00    +0.005 C 
ATOM      2  C   UNL     1      -9.584  -0.628 -16.101  0.00  0.00    +0.005 C 
ATOM      3  C   UNL     1     -11.210  -1.026 -16.248  0.00  0.00    +0.042 C 
ATOM      4  C   UNL     1     -12.068   0.177 -16.522  0.00  0.00    -0.013 C 
ATOM      5  S   UNL     1     -13.753   0.274 -16.230  0.00  0.00    -0.106 S 
ATOM      6  C   UNL     1     -13.699   2.006 -16.283  0.00  0.00    +0.152 C 
ATOM      7  C   UNL     1     -12.612   2.381 -17.087  0.00  0.00    +0.155 C 
ATOM      8  C   UNL     1     -11.604   1.317 -17.127  0.00  0.00    -0.044 C 
ATOM      9  C   UNL     1     -10.189   1.341 -17.667  0.00  0.00    +0.032 C 
ENDROOT
BRANCH   6  10
ATOM     10  N   UNL     1     -14.786   2.769 -15.795  0.00  0.00    -0.313 N 
ATOM     11  H   UNL     1     -14.703   2.986 -14.804  0.00  0.00    +0.149 HD
BRANCH  10  12
ATOM     12  C   UNL     1     -16.093   2.988 -16.232  0.00  0.00    +0.131 C 
ATOM     13  S   UNL     1     -16.323   4.020 -17.530  0.00  0.00    -0.019 S 
BRANCH  12  14
ATOM     14  N   UNL     1     -17.210   2.504 -15.582  0.00  0.00    -0.330 N 
ATOM     15  H   UNL     1     -17.877   1.892 -16.038  0.00  0.00    +0.147 HD
ATOM     16  C   UNL     1     -17.307   2.977 -14.162  0.00  0.00    +0.127 C 
ENDBRANCH  12  14
ENDBRANCH  10  12
ENDBRANCH   6  10
BRANCH   7  17
ATOM     17  C   UNL     1     -12.446   3.690 -17.711  0.00  0.00    +0.317 C 
ATOM     18  O   UNL     1     -12.647   3.898 -18.901  0.00  0.00    -0.250 OA
BRANCH  17  19
ATOM     19  O   UNL     1     -12.149   4.666 -16.801  0.00  0.00    -0.464 OA
BRANCH  19  20
ATOM     20  C   UNL     1     -10.770   5.060 -16.746  0.00  0.00    +0.229 C 
ATOM     21  C   UNL     1     -10.055   4.329 -15.621  0.00  0.00    +0.048 C 
ENDBRANCH  19  20
ENDBRANCH  17  19
ENDBRANCH   7  17
TORSDOF 6
ENDMDL
MODEL 6
REMARK VINA RESULT:      -5.5     13.891     15.182
REMARK  Name = min_compound958.pdb
REMARK  8 active torsions:
REMARK  status: ('A' for Active; 'I' for Inactive)
REMARK    1  A    between atoms: _8  and  _15
REMARK    2  A    between atoms: _9  and  _10
REMARK    3  A    between atoms: _10  and  _12
REMARK    4  A    between atoms: _12  and  _16
REMARK    5  A    between atoms: _14  and  _15
REMARK    6  A    between atoms: _14  and  _18
REMARK    7  A    between atoms: _16  and  _17
REMARK    8  A    between atoms: _18  and  _19
REMARK                            x       y       z     vdW  Elec       q    Type
REMARK                         _______ _______ _______ _____ _____    ______ ____
ROOT
ATOM      1  C   UNL     1     -14.478  -2.340  -1.591  0.00  0.00    +0.005 C 
ATOM      2  C   UNL     1     -15.620  -2.232  -0.624  0.00  0.00    +0.005 C 
ATOM      3  C   UNL     1     -16.841  -2.081  -1.770  0.00  0.00    +0.042 C 
ATOM      4  C   UNL     1     -16.640  -0.886  -2.659  0.00  0.00    -0.013 C 
ATOM      5  S   UNL     1     -17.871  -0.114  -3.568  0.00  0.00    -0.106 S 
ATOM      6  C   UNL     1     -16.898   1.312  -3.741  0.00  0.00    +0.152 C 
ATOM      7  C   UNL     1     -15.551   0.929  -3.657  0.00  0.00    +0.155 C 
ATOM      8  C   UNL     1     -15.413  -0.328  -2.915  0.00  0.00    -0.044 C 
ATOM      9  C   UNL     1     -14.169  -1.009  -2.382  0.00  0.00    +0.032 C 
ENDROOT
BRANCH   6  10
ATOM     10  N   UNL     1     -17.483   2.525  -4.172  0.00  0.00    -0.313 N 
ATOM     11  H   UNL     1     -17.650   2.549  -5.176  0.00  0.00    +0.149 HD
BRANCH  10  12
ATOM     12  C   UNL     1     -17.557   3.813  -3.638  0.00  0.00    +0.131 C 
ATOM     13  S   UNL     1     -18.994   4.283  -2.920  0.00  0.00    -0.019 S 
BRANCH  12  14
ATOM     14  N   UNL     1     -16.562   4.758  -3.777  0.00  0.00    -0.330 N 
ATOM     15  H   UNL     1     -15.628   4.618  -3.409  0.00  0.00    +0.147 HD
ATOM     16  C   UNL     1     -17.018   5.979  -4.520  0.00  0.00    +0.127 C 
ENDBRANCH  12  14
ENDBRANCH  10  12
ENDBRANCH   6  10
BRANCH   7  17
ATOM     17  C   UNL     1     -14.425   1.723  -4.139  0.00  0.00    +0.317 C 
ATOM     18  O   UNL     1     -14.179   2.853  -3.739  0.00  0.00    -0.250 OA
BRANCH  17  19
ATOM     19  O   UNL     1     -13.626   1.022  -4.999  0.00  0.00    -0.464 OA
BRANCH  19  20
ATOM     20  C   UNL     1     -14.147   0.851  -6.325  0.00  0.00    +0.229 C 
ATOM     21  C   UNL     1     -14.413  -0.620  -6.604  0.00  0.00    +0.048 C 
ENDBRANCH  19  20
ENDBRANCH  17  19
ENDBRANCH   7  17
TORSDOF 6
ENDMDL
MODEL 7
REMARK VINA RESULT:      -5.5     13.490     15.102
REMARK  Name = min_compound958.pdb
REMARK  8 active torsions:
REMARK  status: ('A' for Active; 'I' for Inactive)
REMARK    1  A    between atoms: _8  and  _15
REMARK    2  A    between atoms: _9  and  _10
REMARK    3  A    between atoms: _10  and  _12
REMARK    4  A    between atoms: _12  and  _16
REMARK    5  A    between atoms: _14  and  _15
REMARK    6  A    between atoms: _14  and  _18
REMARK    7  A    between atoms: _16  and  _17
REMARK    8  A    between atoms: _18  and  _19
REMARK                            x       y       z     vdW  Elec       q    Type
REMARK                         _______ _______ _______ _____ _____    ______ ____
ROOT
ATOM      1  C   UNL     1     -14.690  -2.518  -1.021  0.00  0.00    +0.005 C 
ATOM      2  C   UNL     1     -15.898  -2.162  -0.207  0.00  0.00    +0.005 C 
ATOM      3  C   UNL     1     -17.049  -2.630  -1.339  0.00  0.00    +0.042 C 
ATOM      4  C   UNL     1     -16.908  -1.882  -2.635  0.00  0.00    -0.013 C 
ATOM      5  S   UNL     1     -18.145  -1.692  -3.804  0.00  0.00    -0.106 S 
ATOM      6  C   UNL     1     -17.308  -0.355  -4.525  0.00  0.00    +0.152 C 
ATOM      7  C   UNL     1     -15.938  -0.512  -4.264  0.00  0.00    +0.155 C 
ATOM      8  C   UNL     1     -15.727  -1.336  -3.071  0.00  0.00    -0.044 C 
ATOM      9  C   UNL     1     -14.460  -1.594  -2.280  0.00  0.00    +0.032 C 
ENDROOT
BRANCH   6  10
ATOM     10  N   UNL     1     -17.979   0.503  -5.428  0.00  0.00    -0.313 N 
ATOM     11  H   UNL     1     -18.702   1.062  -4.978  0.00  0.00    +0.149 HD
BRANCH  10  12
ATOM     12  C   UNL     1     -18.143   0.520  -6.813  0.00  0.00    +0.131 C 
ATOM     13  S   UNL     1     -19.674   0.235  -7.426  0.00  0.00    -0.019 S 
BRANCH  12  14
ATOM     14  N   UNL     1     -17.098   0.636  -7.708  0.00  0.00    -0.330 N 
ATOM     15  H   UNL     1     -16.731   1.535  -7.995  0.00  0.00    +0.147 HD
ATOM     16  C   UNL     1     -16.588  -0.693  -8.181  0.00  0.00    +0.127 C 
ENDBRANCH  12  14
ENDBRANCH  10  12
ENDBRANCH   6  10
BRANCH   7  17
ATOM     17  C   UNL     1     -14.865   0.145  -5.006  0.00  0.00    +0.317 C 
ATOM     18  O   UNL     1     -13.928  -0.462  -5.508  0.00  0.00    -0.250 OA
BRANCH  17  19
ATOM     19  O   UNL     1     -15.087   1.484  -5.165  0.00  0.00    -0.464 OA
BRANCH  19  20
ATOM     20  C   UNL     1     -14.943   2.279  -3.979  0.00  0.00    +0.229 C 
ATOM     21  C   UNL     1     -13.477   2.389  -3.590  0.00  0.00    +0.048 C 
ENDBRANCH  19  20
ENDBRANCH  17  19
ENDBRANCH   7  17
TORSDOF 6
ENDMDL
MODEL 8
REMARK VINA RESULT:      -5.4      2.776      3.815
REMARK  Name = min_compound958.pdb
REMARK  8 active torsions:
REMARK  status: ('A' for Active; 'I' for Inactive)
REMARK    1  A    between atoms: _8  and  _15
REMARK    2  A    between atoms: _9  and  _10
REMARK    3  A    between atoms: _10  and  _12
REMARK    4  A    between atoms: _12  and  _16
REMARK    5  A    between atoms: _14  and  _15
REMARK    6  A    between atoms: _14  and  _18
REMARK    7  A    between atoms: _16  and  _17
REMARK    8  A    between atoms: _18  and  _19
REMARK                            x       y       z     vdW  Elec       q    Type
REMARK                         _______ _______ _______ _____ _____    ______ ____
ROOT
ATOM      1  C   UNL     1     -10.337   1.197 -15.869  0.00  0.00    +0.005 C 
ATOM      2  C   UNL     1     -10.916  -0.113 -16.316  0.00  0.00    +0.005 C 
ATOM      3  C   UNL     1     -11.179   0.319 -17.919  0.00  0.00    +0.042 C 
ATOM      4  C   UNL     1     -12.097   1.501 -18.046  0.00  0.00    -0.013 C 
ATOM      5  S   UNL     1     -12.993   1.909 -19.449  0.00  0.00    -0.106 S 
ATOM      6  C   UNL     1     -14.053   2.920 -18.521  0.00  0.00    +0.152 C 
ATOM      7  C   UNL     1     -13.348   3.368 -17.394  0.00  0.00    +0.155 C 
ATOM      8  C   UNL     1     -12.253   2.449 -17.067  0.00  0.00    -0.044 C 
ATOM      9  C   UNL     1     -11.373   2.388 -15.835  0.00  0.00    +0.032 C 
ENDROOT
BRANCH   6  10
ATOM     10  N   UNL     1     -15.281   3.359 -19.070  0.00  0.00    -0.313 N 
ATOM     11  H   UNL     1     -15.979   2.620 -19.118  0.00  0.00    +0.149 HD
BRANCH  10  12
ATOM     12  C   UNL     1     -15.656   4.433 -19.878  0.00  0.00    +0.131 C 
ATOM     13  S   UNL     1     -17.061   4.288 -20.776  0.00  0.00    -0.019 S 
BRANCH  12  14
ATOM     14  N   UNL     1     -14.874   5.554 -20.074  0.00  0.00    -0.330 N 
ATOM     15  H   UNL     1     -13.864   5.503 -20.139  0.00  0.00    +0.147 HD
ATOM     16  C   UNL     1     -15.681   6.814 -20.180  0.00  0.00    +0.127 C 
ENDBRANCH  12  14
ENDBRANCH  10  12
ENDBRANCH   6  10
BRANCH   7  17
ATOM     17  C   UNL     1     -13.714   4.527 -16.585  0.00  0.00    +0.317 C 
ATOM     18  O   UNL     1     -14.059   4.446 -15.413  0.00  0.00    -0.250 OA
BRANCH  17  19
ATOM     19  O   UNL     1     -13.522   5.707 -17.250  0.00  0.00    -0.464 OA
BRANCH  19  20
ATOM     20  C   UNL     1     -12.156   6.127 -17.380  0.00  0.00    +0.229 C 
ATOM     21  C   UNL     1     -11.998   7.050 -18.577  0.00  0.00    +0.048 C 
ENDBRANCH  19  20
ENDBRANCH  17  19
ENDBRANCH   7  17
TORSDOF 6
ENDMDL
MODEL 9
REMARK VINA RESULT:      -5.2     11.553     12.840
REMARK  Name = min_compound958.pdb
REMARK  8 active torsions:
REMARK  status: ('A' for Active; 'I' for Inactive)
REMARK    1  A    between atoms: _8  and  _15
REMARK    2  A    between atoms: _9  and  _10
REMARK    3  A    between atoms: _10  and  _12
REMARK    4  A    between atoms: _12  and  _16
REMARK    5  A    between atoms: _14  and  _15
REMARK    6  A    between atoms: _14  and  _18
REMARK    7  A    between atoms: _16  and  _17
REMARK    8  A    between atoms: _18  and  _19
REMARK                            x       y       z     vdW  Elec       q    Type
REMARK                         _______ _______ _______ _____ _____    ______ ____
ROOT
ATOM      1  C   UNL     1     -14.188   0.136  -3.202  0.00  0.00    +0.005 C 
ATOM      2  C   UNL     1     -13.371   1.346  -3.547  0.00  0.00    +0.005 C 
ATOM      3  C   UNL     1     -14.658   2.413  -3.727  0.00  0.00    +0.042 C 
ATOM      4  C   UNL     1     -15.622   1.967  -4.790  0.00  0.00    -0.013 C 
ATOM      5  S   UNL     1     -16.730   2.986  -5.608  0.00  0.00    -0.106 S 
ATOM      6  C   UNL     1     -16.918   1.821  -6.878  0.00  0.00    +0.152 C 
ATOM      7  C   UNL     1     -16.647   0.552  -6.345  0.00  0.00    +0.155 C 
ATOM      8  C   UNL     1     -15.785   0.657  -5.164  0.00  0.00    -0.044 C 
ATOM      9  C   UNL     1     -15.055  -0.425  -4.396  0.00  0.00    +0.032 C 
ENDROOT
BRANCH   6  10
ATOM     10  N   UNL     1     -17.521   2.193  -8.103  0.00  0.00    -0.313 N 
ATOM     11  H   UNL     1     -18.253   1.550  -8.395  0.00  0.00    +0.149 HD
BRANCH  10  12
ATOM     12  C   UNL     1     -17.132   3.002  -9.171  0.00  0.00    +0.131 C 
ATOM     13  S   UNL     1     -18.305   3.470 -10.270  0.00  0.00    -0.019 S 
BRANCH  12  14
ATOM     14  N   UNL     1     -15.820   3.335  -9.443  0.00  0.00    -0.330 N 
ATOM     15  H   UNL     1     -15.046   2.961  -8.906  0.00  0.00    +0.147 HD
ATOM     16  C   UNL     1     -15.687   4.285 -10.595  0.00  0.00    +0.127 C 
ENDBRANCH  12  14
ENDBRANCH  10  12
ENDBRANCH   6  10
BRANCH   7  17
ATOM     17  C   UNL     1     -17.068  -0.713  -6.942  0.00  0.00    +0.317 C 
ATOM     18  O   UNL     1     -16.695  -1.092  -8.044  0.00  0.00    -0.250 OA
BRANCH  17  19
ATOM     19  O   UNL     1     -17.830  -1.462  -6.088  0.00  0.00    -0.464 OA
BRANCH  19  20
ATOM     20  C   UNL     1     -19.045  -0.844  -5.641  0.00  0.00    +0.229 C 
ATOM     21  C   UNL     1     -19.185  -0.980  -4.133  0.00  0.00    +0.048 C 
ENDBRANCH  19  20
ENDBRANCH  17  19
ENDBRANCH   7  17
TORSDOF 6
ENDMDL
