MODEL 1
REMARK VINA RESULT:      -6.5      0.000      0.000
REMARK  Name = min_compound974.pdb
REMARK  3 active torsions:
REMARK  status: ('A' for Active; 'I' for Inactive)
REMARK    1  A    between atoms: _10  and  _18
REMARK    2  A    between atoms: _12  and  _15
REMARK    3  A    between atoms: _15  and  _17
REMARK                            x       y       z     vdW  Elec       q    Type
REMARK                         _______ _______ _______ _____ _____    ______ ____
ROOT
ATOM      1  C   UNL     1     -12.190   1.290 -16.494  0.00  0.00    -0.010 A 
ATOM      2  C   UNL     1     -10.882   1.817 -16.472  0.00  0.00    +0.066 A 
ATOM      3  C   UNL     1      -9.781   0.943 -16.427  0.00  0.00    +0.015 A 
ATOM      4  C   UNL     1      -9.970  -0.439 -16.392  0.00  0.00    +0.001 A 
ATOM      5  C   UNL     1     -11.258  -0.962 -16.402  0.00  0.00    +0.001 A 
ATOM      6  C   UNL     1     -12.359  -0.104 -16.452  0.00  0.00    +0.009 A 
ENDROOT
BRANCH   1  12
ATOM      7  H   UNL     1     -16.318   4.565 -18.888  0.00  0.00    +0.156 HD
ATOM      8  N   UNL     1     -15.524   3.955 -18.771  0.00  0.00    -0.270 N 
ATOM      9  C   UNL     1     -14.735   3.591 -19.819  0.00  0.00    +0.118 C 
ATOM     10  S   UNL     1     -13.486   2.497 -19.270  0.00  0.00    -0.061 S 
ATOM     11  C   UNL     1     -13.993   2.621 -17.624  0.00  0.00    +0.077 C 
ATOM     12  C   UNL     1     -13.418   2.098 -16.534  0.00  0.00    +0.029 C 
ATOM     13  S   UNL     1     -14.968   4.123 -21.370  0.00  0.00    -0.027 S 
ATOM     14  C   UNL     1     -15.218   3.460 -17.535  0.00  0.00    +0.256 C 
ATOM     15  O   UNL     1     -15.866   3.669 -16.522  0.00  0.00    -0.269 OA
ENDBRANCH   1  12
BRANCH   2  16
ATOM     16  C   UNL     1     -10.632   3.284 -16.450  0.00  0.00    +0.337 C 
ATOM     17  O   UNL     1     -10.642   4.049 -17.396  0.00  0.00    -0.245 OA
BRANCH  16  18
ATOM     18  O   UNL     1     -10.340   3.725 -15.211  0.00  0.00    -0.477 OA
ATOM     19  H   UNL     1     -11.091   4.314 -14.987  0.00  0.00    +0.295 HD
ENDBRANCH  16  18
ENDBRANCH   2  16
TORSDOF 3
ENDMDL
MODEL 2
REMARK VINA RESULT:      -6.2      2.088      2.441
REMARK  Name = min_compound974.pdb
REMARK  3 active torsions:
REMARK  status: ('A' for Active; 'I' for Inactive)
REMARK    1  A    between atoms: _10  and  _18
REMARK    2  A    between atoms: _12  and  _15
REMARK    3  A    between atoms: _15  and  _17
REMARK                            x       y       z     vdW  Elec       q    Type
REMARK                         _______ _______ _______ _____ _____    ______ ____
ROOT
ATOM      1  C   UNL     1     -12.024   1.238 -16.921  0.00  0.00    -0.010 A 
ATOM      2  C   UNL     1     -10.794   1.701 -16.409  0.00  0.00    +0.066 A 
ATOM      3  C   UNL     1      -9.915   0.796 -15.787  0.00  0.00    +0.015 A 
ATOM      4  C   UNL     1     -10.252  -0.552 -15.663  0.00  0.00    +0.001 A 
ATOM      5  C   UNL     1     -11.468  -1.010 -16.156  0.00  0.00    +0.001 A 
ATOM      6  C   UNL     1     -12.347  -0.122 -16.780  0.00  0.00    +0.009 A 
ENDROOT
BRANCH   1  12
ATOM      7  H   UNL     1     -16.395   5.016 -17.265  0.00  0.00    +0.156 HD
ATOM      8  N   UNL     1     -15.643   4.448 -16.906  0.00  0.00    -0.270 N 
ATOM      9  C   UNL     1     -15.368   4.375 -15.576  0.00  0.00    +0.118 C 
ATOM     10  S   UNL     1     -13.982   3.341 -15.313  0.00  0.00    -0.061 S 
ATOM     11  C   UNL     1     -13.855   2.954 -16.990  0.00  0.00    +0.077 C 
ATOM     12  C   UNL     1     -13.027   2.084 -17.584  0.00  0.00    +0.029 C 
ATOM     13  S   UNL     1     -16.237   5.173 -14.414  0.00  0.00    -0.027 S 
ATOM     14  C   UNL     1     -14.861   3.728 -17.765  0.00  0.00    +0.256 C 
ATOM     15  O   UNL     1     -14.970   3.739 -18.980  0.00  0.00    -0.269 OA
ENDBRANCH   1  12
BRANCH   2  16
ATOM     16  C   UNL     1     -10.418   3.139 -16.467  0.00  0.00    +0.337 C 
ATOM     17  O   UNL     1     -10.134   3.789 -17.456  0.00  0.00    -0.245 OA
BRANCH  16  18
ATOM     18  O   UNL     1     -10.380   3.699 -15.242  0.00  0.00    -0.477 OA
ATOM     19  H   UNL     1     -10.708   2.991 -14.649  0.00  0.00    +0.295 HD
ENDBRANCH  16  18
ENDBRANCH   2  16
TORSDOF 3
ENDMDL
MODEL 3
REMARK VINA RESULT:      -6.1      1.940      2.049
REMARK  Name = min_compound974.pdb
REMARK  3 active torsions:
REMARK  status: ('A' for Active; 'I' for Inactive)
REMARK    1  A    between atoms: _10  and  _18
REMARK    2  A    between atoms: _12  and  _15
REMARK    3  A    between atoms: _15  and  _17
REMARK                            x       y       z     vdW  Elec       q    Type
REMARK                         _______ _______ _______ _____ _____    ______ ____
ROOT
ATOM      1  C   UNL     1     -12.316   2.319 -16.270  0.00  0.00    -0.010 A 
ATOM      2  C   UNL     1     -11.029   2.785 -16.609  0.00  0.00    +0.066 A 
ATOM      3  C   UNL     1     -10.120   1.918 -17.242  0.00  0.00    +0.015 A 
ATOM      4  C   UNL     1     -10.475   0.599 -17.526  0.00  0.00    +0.001 A 
ATOM      5  C   UNL     1     -11.739   0.133 -17.183  0.00  0.00    +0.001 A 
ATOM      6  C   UNL     1     -12.652   0.986 -16.559  0.00  0.00    +0.009 A 
ENDROOT
BRANCH   1  12
ATOM      7  H   UNL     1     -16.549   6.244 -15.858  0.00  0.00    +0.156 HD
ATOM      8  N   UNL     1     -15.860   5.612 -16.234  0.00  0.00    -0.270 N 
ATOM      9  C   UNL     1     -15.572   5.569 -17.564  0.00  0.00    +0.118 C 
ATOM     10  S   UNL     1     -14.370   4.335 -17.870  0.00  0.00    -0.061 S 
ATOM     11  C   UNL     1     -14.210   3.965 -16.191  0.00  0.00    +0.077 C 
ATOM     12  C   UNL     1     -13.349   3.125 -15.602  0.00  0.00    +0.029 C 
ATOM     13  S   UNL     1     -16.287   6.549 -18.690  0.00  0.00    -0.027 S 
ATOM     14  C   UNL     1     -15.188   4.761 -15.403  0.00  0.00    +0.256 C 
ATOM     15  O   UNL     1     -15.380   4.665 -14.202  0.00  0.00    -0.269 OA
ENDBRANCH   1  12
BRANCH   2  16
ATOM     16  C   UNL     1     -10.585   4.165 -16.274  0.00  0.00    +0.337 C 
ATOM     17  O   UNL     1     -10.871   5.194 -16.856  0.00  0.00    -0.245 OA
BRANCH  16  18
ATOM     18  O   UNL     1      -9.753   4.181 -15.214  0.00  0.00    -0.477 OA
ATOM     19  H   UNL     1      -9.841   5.091 -14.859  0.00  0.00    +0.295 HD
ENDBRANCH  16  18
ENDBRANCH   2  16
TORSDOF 3
ENDMDL
MODEL 4
REMARK VINA RESULT:      -6.0     11.449     12.080
REMARK  Name = min_compound974.pdb
REMARK  3 active torsions:
REMARK  status: ('A' for Active; 'I' for Inactive)
REMARK    1  A    between atoms: _10  and  _18
REMARK    2  A    between atoms: _12  and  _15
REMARK    3  A    between atoms: _15  and  _17
REMARK                            x       y       z     vdW  Elec       q    Type
REMARK                         _______ _______ _______ _____ _____    ______ ____
ROOT
ATOM      1  C   UNL     1     -15.792   1.138  -4.947  0.00  0.00    -0.010 A 
ATOM      2  C   UNL     1     -14.702   0.243  -4.890  0.00  0.00    +0.066 A 
ATOM      3  C   UNL     1     -13.535   0.613  -4.198  0.00  0.00    +0.015 A 
ATOM      4  C   UNL     1     -13.440   1.859  -3.577  0.00  0.00    +0.001 A 
ATOM      5  C   UNL     1     -14.508   2.747  -3.640  0.00  0.00    +0.001 A 
ATOM      6  C   UNL     1     -15.674   2.390  -4.320  0.00  0.00    +0.009 A 
ENDROOT
BRANCH   1  12
ATOM      7  H   UNL     1     -19.746   1.605  -9.147  0.00  0.00    +0.156 HD
ATOM      8  N   UNL     1     -18.888   1.683  -8.624  0.00  0.00    -0.270 N 
ATOM      9  C   UNL     1     -17.843   2.435  -9.063  0.00  0.00    +0.118 C 
ATOM     10  S   UNL     1     -16.507   2.309  -7.940  0.00  0.00    -0.061 S 
ATOM     11  C   UNL     1     -17.413   1.318  -6.854  0.00  0.00    +0.077 C 
ATOM     12  C   UNL     1     -17.059   0.870  -5.643  0.00  0.00    +0.029 C 
ATOM     13  S   UNL     1     -17.871   3.316 -10.465  0.00  0.00    -0.027 S 
ATOM     14  C   UNL     1     -18.746   1.014  -7.441  0.00  0.00    +0.256 C 
ATOM     15  O   UNL     1     -19.584   0.272  -6.957  0.00  0.00    -0.269 OA
ENDBRANCH   1  12
BRANCH   2  16
ATOM     16  C   UNL     1     -14.736  -1.071  -5.586  0.00  0.00    +0.337 C 
ATOM     17  O   UNL     1     -14.954  -1.277  -6.765  0.00  0.00    -0.245 OA
BRANCH  16  18
ATOM     18  O   UNL     1     -14.522  -2.095  -4.736  0.00  0.00    -0.477 OA
ATOM     19  H   UNL     1     -14.976  -2.852  -5.161  0.00  0.00    +0.295 HD
ENDBRANCH  16  18
ENDBRANCH   2  16
TORSDOF 3
ENDMDL
MODEL 5
REMARK VINA RESULT:      -5.9      3.059      3.863
REMARK  Name = min_compound974.pdb
REMARK  3 active torsions:
REMARK  status: ('A' for Active; 'I' for Inactive)
REMARK    1  A    between atoms: _10  and  _18
REMARK    2  A    between atoms: _12  and  _15
REMARK    3  A    between atoms: _15  and  _17
REMARK                            x       y       z     vdW  Elec       q    Type
REMARK                         _______ _______ _______ _____ _____    ______ ____
ROOT
ATOM      1  C   UNL     1     -11.600   2.999 -17.187  0.00  0.00    -0.010 A 
ATOM      2  C   UNL     1     -12.281   1.942 -17.827  0.00  0.00    +0.066 A 
ATOM      3  C   UNL     1     -12.063   0.618 -17.404  0.00  0.00    +0.015 A 
ATOM      4  C   UNL     1     -11.171   0.340 -16.368  0.00  0.00    +0.001 A 
ATOM      5  C   UNL     1     -10.490   1.378 -15.743  0.00  0.00    +0.001 A 
ATOM      6  C   UNL     1     -10.703   2.697 -16.149  0.00  0.00    +0.009 A 
ENDROOT
BRANCH   1  12
ATOM      7  H   UNL     1     -14.171   8.177 -17.468  0.00  0.00    +0.156 HD
ATOM      8  N   UNL     1     -13.962   7.221 -17.225  0.00  0.00    -0.270 N 
ATOM      9  C   UNL     1     -14.814   6.464 -16.482  0.00  0.00    +0.118 C 
ATOM     10  S   UNL     1     -14.121   4.881 -16.213  0.00  0.00    -0.061 S 
ATOM     11  C   UNL     1     -12.737   5.237 -17.182  0.00  0.00    +0.077 C 
ATOM     12  C   UNL     1     -11.739   4.420 -17.541  0.00  0.00    +0.029 C 
ATOM     13  S   UNL     1     -16.277   7.007 -15.927  0.00  0.00    -0.027 S 
ATOM     14  C   UNL     1     -12.790   6.652 -17.637  0.00  0.00    +0.256 C 
ATOM     15  O   UNL     1     -11.920   7.230 -18.268  0.00  0.00    -0.269 OA
ENDBRANCH   1  12
BRANCH   2  16
ATOM     16  C   UNL     1     -13.196   2.186 -18.974  0.00  0.00    +0.337 C 
ATOM     17  O   UNL     1     -14.256   2.783 -18.959  0.00  0.00    -0.245 OA
BRANCH  16  18
ATOM     18  O   UNL     1     -12.741   1.620 -20.109  0.00  0.00    -0.477 OA
ATOM     19  H   UNL     1     -13.549   1.481 -20.644  0.00  0.00    +0.295 HD
ENDBRANCH  16  18
ENDBRANCH   2  16
TORSDOF 3
ENDMDL
MODEL 6
REMARK VINA RESULT:      -5.9     14.410     15.371
REMARK  Name = min_compound974.pdb
REMARK  3 active torsions:
REMARK  status: ('A' for Active; 'I' for Inactive)
REMARK    1  A    between atoms: _10  and  _18
REMARK    2  A    between atoms: _12  and  _15
REMARK    3  A    between atoms: _15  and  _17
REMARK                            x       y       z     vdW  Elec       q    Type
REMARK                         _______ _______ _______ _____ _____    ______ ____
ROOT
ATOM      1  C   UNL     1     -14.445  -0.595  -3.813  0.00  0.00    -0.010 A 
ATOM      2  C   UNL     1     -14.814  -0.116  -5.088  0.00  0.00    +0.066 A 
ATOM      3  C   UNL     1     -14.478   1.198  -5.461  0.00  0.00    +0.015 A 
ATOM      4  C   UNL     1     -13.794   2.035  -4.579  0.00  0.00    +0.001 A 
ATOM      5  C   UNL     1     -13.438   1.571  -3.318  0.00  0.00    +0.001 A 
ATOM      6  C   UNL     1     -13.762   0.266  -2.938  0.00  0.00    +0.009 A 
ENDROOT
BRANCH   1  12
ATOM      7  H   UNL     1     -17.479  -4.683  -1.061  0.00  0.00    +0.156 HD
ATOM      8  N   UNL     1     -17.215  -3.811  -1.493  0.00  0.00    -0.270 N 
ATOM      9  C   UNL     1     -18.005  -2.706  -1.425  0.00  0.00    +0.118 C 
ATOM     10  S   UNL     1     -17.267  -1.394  -2.316  0.00  0.00    -0.061 S 
ATOM     11  C   UNL     1     -15.864  -2.331  -2.686  0.00  0.00    +0.077 C 
ATOM     12  C   UNL     1     -14.743  -1.942  -3.306  0.00  0.00    +0.029 C 
ATOM     13  S   UNL     1     -19.449  -2.658  -0.617  0.00  0.00    -0.027 S 
ATOM     14  C   UNL     1     -16.036  -3.718  -2.178  0.00  0.00    +0.256 C 
ATOM     15  O   UNL     1     -15.259  -4.642  -2.354  0.00  0.00    -0.269 OA
ENDBRANCH   1  12
BRANCH   2  16
ATOM     16  C   UNL     1     -15.594  -0.953  -6.038  0.00  0.00    +0.337 C 
ATOM     17  O   UNL     1     -16.769  -0.838  -6.331  0.00  0.00    -0.245 OA
BRANCH  16  18
ATOM     18  O   UNL     1     -14.848  -1.945  -6.564  0.00  0.00    -0.477 OA
ATOM     19  H   UNL     1     -14.836  -1.748  -7.524  0.00  0.00    +0.295 HD
ENDBRANCH  16  18
ENDBRANCH   2  16
TORSDOF 3
ENDMDL
MODEL 7
REMARK VINA RESULT:      -5.8      2.649      3.485
REMARK  Name = min_compound974.pdb
REMARK  3 active torsions:
REMARK  status: ('A' for Active; 'I' for Inactive)
REMARK    1  A    between atoms: _10  and  _18
REMARK    2  A    between atoms: _12  and  _15
REMARK    3  A    between atoms: _15  and  _17
REMARK                            x       y       z     vdW  Elec       q    Type
REMARK                         _______ _______ _______ _____ _____    ______ ____
ROOT
ATOM      1  C   UNL     1     -11.959   2.424 -17.809  0.00  0.00    -0.010 A 
ATOM      2  C   UNL     1     -11.550   1.515 -16.811  0.00  0.00    +0.066 A 
ATOM      3  C   UNL     1     -10.897   1.994 -15.660  0.00  0.00    +0.015 A 
ATOM      4  C   UNL     1     -10.641   3.356 -15.502  0.00  0.00    +0.001 A 
ATOM      5  C   UNL     1     -11.033   4.254 -16.488  0.00  0.00    +0.001 A 
ATOM      6  C   UNL     1     -11.686   3.792 -17.633  0.00  0.00    +0.009 A 
ENDROOT
BRANCH   1  12
ATOM      7  H   UNL     1     -16.079   2.597 -21.870  0.00  0.00    +0.156 HD
ATOM      8  N   UNL     1     -15.513   2.823 -21.067  0.00  0.00    -0.270 N 
ATOM      9  C   UNL     1     -15.855   3.815 -20.201  0.00  0.00    +0.118 C 
ATOM     10  S   UNL     1     -14.634   3.964 -18.957  0.00  0.00    -0.061 S 
ATOM     11  C   UNL     1     -13.732   2.627 -19.574  0.00  0.00    +0.077 C 
ATOM     12  C   UNL     1     -12.642   2.048 -19.056  0.00  0.00    +0.029 C 
ATOM     13  S   UNL     1     -17.228   4.728 -20.347  0.00  0.00    -0.027 S 
ATOM     14  C   UNL     1     -14.360   2.130 -20.827  0.00  0.00    +0.256 C 
ATOM     15  O   UNL     1     -13.915   1.250 -21.546  0.00  0.00    -0.269 OA
ENDBRANCH   1  12
BRANCH   2  16
ATOM     16  C   UNL     1     -11.750   0.049 -16.963  0.00  0.00    +0.337 C 
ATOM     17  O   UNL     1     -12.675  -0.618 -16.537  0.00  0.00    -0.245 OA
BRANCH  16  18
ATOM     18  O   UNL     1     -10.733  -0.530 -17.630  0.00  0.00    -0.477 OA
ATOM     19  H   UNL     1     -11.177  -1.141 -18.253  0.00  0.00    +0.295 HD
ENDBRANCH  16  18
ENDBRANCH   2  16
TORSDOF 3
ENDMDL
MODEL 8
REMARK VINA RESULT:      -5.8     14.445     15.262
REMARK  Name = min_compound974.pdb
REMARK  3 active torsions:
REMARK  status: ('A' for Active; 'I' for Inactive)
REMARK    1  A    between atoms: _10  and  _18
REMARK    2  A    between atoms: _12  and  _15
REMARK    3  A    between atoms: _15  and  _17
REMARK                            x       y       z     vdW  Elec       q    Type
REMARK                         _______ _______ _______ _____ _____    ______ ____
ROOT
ATOM      1  C   UNL     1     -16.021   0.504  -4.181  0.00  0.00    -0.010 A 
ATOM      2  C   UNL     1     -14.772  -0.098  -3.925  0.00  0.00    +0.066 A 
ATOM      3  C   UNL     1     -13.664   0.707  -3.607  0.00  0.00    +0.015 A 
ATOM      4  C   UNL     1     -13.785   2.096  -3.555  0.00  0.00    +0.001 A 
ATOM      5  C   UNL     1     -15.012   2.695  -3.818  0.00  0.00    +0.001 A 
ATOM      6  C   UNL     1     -16.121   1.905  -4.129  0.00  0.00    +0.009 A 
ENDROOT
BRANCH   1  12
ATOM      7  H   UNL     1     -20.689  -2.787  -3.245  0.00  0.00    +0.156 HD
ATOM      8  N   UNL     1     -19.872  -2.216  -3.096  0.00  0.00    -0.270 N 
ATOM      9  C   UNL     1     -19.337  -2.033  -1.858  0.00  0.00    +0.118 C 
ATOM     10  S   UNL     1     -17.962  -0.956  -1.959  0.00  0.00    -0.061 S 
ATOM     11  C   UNL     1     -18.076  -0.845  -3.678  0.00  0.00    +0.077 C 
ATOM     12  C   UNL     1     -17.248  -0.228  -4.529  0.00  0.00    +0.029 C 
ATOM     13  S   UNL     1     -19.940  -2.737  -0.486  0.00  0.00    -0.027 S 
ATOM     14  C   UNL     1     -19.271  -1.592  -4.154  0.00  0.00    +0.256 C 
ATOM     15  O   UNL     1     -19.672  -1.635  -5.305  0.00  0.00    -0.269 OA
ENDBRANCH   1  12
BRANCH   2  16
ATOM     16  C   UNL     1     -14.581  -1.570  -4.026  0.00  0.00    +0.337 C 
ATOM     17  O   UNL     1     -14.551  -2.375  -3.114  0.00  0.00    -0.245 OA
BRANCH  16  18
ATOM     18  O   UNL     1     -14.397  -1.967  -5.301  0.00  0.00    -0.477 OA
ATOM     19  H   UNL     1     -15.293  -1.916  -5.695  0.00  0.00    +0.295 HD
ENDBRANCH  16  18
ENDBRANCH   2  16
TORSDOF 3
ENDMDL
MODEL 9
REMARK VINA RESULT:      -5.7     12.642     13.312
REMARK  Name = min_compound974.pdb
REMARK  3 active torsions:
REMARK  status: ('A' for Active; 'I' for Inactive)
REMARK    1  A    between atoms: _10  and  _18
REMARK    2  A    between atoms: _12  and  _15
REMARK    3  A    between atoms: _15  and  _17
REMARK                            x       y       z     vdW  Elec       q    Type
REMARK                         _______ _______ _______ _____ _____    ______ ____
ROOT
ATOM      1  C   UNL     1     -15.748   1.757  -3.870  0.00  0.00    -0.010 A 
ATOM      2  C   UNL     1     -15.448   0.420  -3.535  0.00  0.00    +0.066 A 
ATOM      3  C   UNL     1     -14.129   0.066  -3.201  0.00  0.00    +0.015 A 
ATOM      4  C   UNL     1     -13.112   1.022  -3.208  0.00  0.00    +0.001 A 
ATOM      5  C   UNL     1     -13.401   2.339  -3.548  0.00  0.00    +0.001 A 
ATOM      6  C   UNL     1     -14.709   2.703  -3.877  0.00  0.00    +0.009 A 
ENDROOT
BRANCH   1  12
ATOM      7  H   UNL     1     -19.950   3.534  -7.431  0.00  0.00    +0.156 HD
ATOM      8  N   UNL     1     -19.086   3.149  -7.084  0.00  0.00    -0.270 N 
ATOM      9  C   UNL     1     -18.071   2.790  -7.916  0.00  0.00    +0.118 C 
ATOM     10  S   UNL     1     -16.749   2.121  -6.986  0.00  0.00    -0.061 S 
ATOM     11  C   UNL     1     -17.549   2.423  -5.486  0.00  0.00    +0.077 C 
ATOM     12  C   UNL     1     -17.083   2.248  -4.244  0.00  0.00    +0.029 C 
ATOM     13  S   UNL     1     -18.128   2.967  -9.561  0.00  0.00    -0.027 S 
ATOM     14  C   UNL     1     -18.910   2.967  -5.740  0.00  0.00    +0.256 C 
ATOM     15  O   UNL     1     -19.752   3.204  -4.891  0.00  0.00    -0.269 OA
ENDBRANCH   1  12
BRANCH   2  16
ATOM     16  C   UNL     1     -16.487  -0.644  -3.570  0.00  0.00    +0.337 C 
ATOM     17  O   UNL     1     -17.331  -0.880  -2.726  0.00  0.00    -0.245 OA
BRANCH  16  18
ATOM     18  O   UNL     1     -16.391  -1.404  -4.679  0.00  0.00    -0.477 OA
ATOM     19  H   UNL     1     -17.300  -1.746  -4.810  0.00  0.00    +0.295 HD
ENDBRANCH  16  18
ENDBRANCH   2  16
TORSDOF 3
ENDMDL
