MODEL 1
REMARK VINA RESULT:      -8.0      0.000      0.000
REMARK  Name = min_compound994.pdb
REMARK  6 active torsions:
REMARK  status: ('A' for Active; 'I' for Inactive)
REMARK    1  A    between atoms: _1  and  _12
REMARK    2  A    between atoms: _2  and  _21
REMARK    3  A    between atoms: _8  and  _23
REMARK    4  A    between atoms: _9  and  _23
REMARK    5  A    between atoms: _10  and  _24
REMARK    6  A    between atoms: _24  and  _26
REMARK                            x       y       z     vdW  Elec       q    Type
REMARK                         _______ _______ _______ _____ _____    ______ ____
ROOT
ATOM      1  C   UNL     1     -13.277   2.058 -16.313  0.00  0.00    +0.134 A 
ATOM      2  C   UNL     1     -12.089   1.279 -16.549  0.00  0.00    +0.028 A 
ATOM      3  C   UNL     1     -12.096  -0.129 -16.335  0.00  0.00    +0.012 A 
ATOM      4  C   UNL     1     -10.996  -0.954 -16.574  0.00  0.00    +0.001 A 
ATOM      5  C   UNL     1      -9.826  -0.392 -17.038  0.00  0.00    +0.001 A 
ATOM      6  C   UNL     1      -9.772   0.986 -17.245  0.00  0.00    +0.012 A 
ATOM      7  C   UNL     1     -10.870   1.863 -17.011  0.00  0.00    +0.028 A 
ATOM      8  C   UNL     1     -10.734   3.269 -17.249  0.00  0.00    +0.132 A 
ATOM      9  C   UNL     1     -11.923   4.047 -17.023  0.00  0.00    +0.029 A 
ATOM     10  C   UNL     1     -11.872   5.440 -17.277  0.00  0.00    +0.013 A 
ATOM     11  C   UNL     1     -12.975   6.283 -17.198  0.00  0.00    +0.017 A 
ATOM     12  C   UNL     1     -14.202   5.763 -16.822  0.00  0.00    +0.081 A 
ATOM     13  C   UNL     1     -14.301   4.410 -16.431  0.00  0.00    +0.057 A 
ATOM     14  C   UNL     1     -13.173   3.488 -16.574  0.00  0.00    +0.050 A 
ENDROOT
BRANCH  12  15
ATOM     15  C   UNL     1     -15.371   6.670 -16.994  0.00  0.00    +0.339 C 
ATOM     16  O   UNL     1     -16.500   6.280 -17.264  0.00  0.00    -0.245 OA
BRANCH  15  17
ATOM     17  O   UNL     1     -15.108   7.964 -16.694  0.00  0.00    -0.477 OA
ATOM     18  H   UNL     1     -15.444   8.164 -15.785  0.00  0.00    +0.295 HD
ENDBRANCH  15  17
ENDBRANCH  12  15
BRANCH  13  19
ATOM     19  N   UNL     1     -15.567   3.878 -15.967  0.00  0.00    -0.313 N 
ATOM     20  H   UNL     1     -15.565   2.899 -16.358  0.00  0.00    +0.152 HD
BRANCH  19  21
ATOM     21  C   UNL     1     -16.096   3.807 -14.648  0.00  0.00    +0.031 A 
ATOM     22  C   UNL     1     -15.393   4.487 -13.639  0.00  0.00    +0.023 A 
ATOM     23  C   UNL     1     -15.765   4.383 -12.297  0.00  0.00    +0.002 A 
ATOM     24  C   UNL     1     -16.846   3.585 -11.939  0.00  0.00    +0.000 A 
ATOM     25  C   UNL     1     -17.560   2.911 -12.927  0.00  0.00    +0.002 A 
ATOM     26  C   UNL     1     -17.191   3.026 -14.273  0.00  0.00    +0.023 A 
ENDBRANCH  19  21
ENDBRANCH  13  19
BRANCH   1  27
ATOM     27  O   UNL     1     -14.380   1.504 -15.917  0.00  0.00    -0.505 OA
ATOM     28  H   UNL     1     -14.878   1.894 -15.225  0.00  0.00    +0.292 HD
ENDBRANCH   1  27
BRANCH   8  29
ATOM     29  O   UNL     1      -9.622   3.796 -17.656  0.00  0.00    -0.506 OA
ATOM     30  H   UNL     1      -8.912   3.245 -17.920  0.00  0.00    +0.292 HD
ENDBRANCH   8  29
TORSDOF 6
ENDMDL
MODEL 2
REMARK VINA RESULT:      -7.9      3.550      4.306
REMARK  Name = min_compound994.pdb
REMARK  6 active torsions:
REMARK  status: ('A' for Active; 'I' for Inactive)
REMARK    1  A    between atoms: _1  and  _12
REMARK    2  A    between atoms: _2  and  _21
REMARK    3  A    between atoms: _8  and  _23
REMARK    4  A    between atoms: _9  and  _23
REMARK    5  A    between atoms: _10  and  _24
REMARK    6  A    between atoms: _24  and  _26
REMARK                            x       y       z     vdW  Elec       q    Type
REMARK                         _______ _______ _______ _____ _____    ______ ____
ROOT
ATOM      1  C   UNL     1     -12.339   2.101 -18.293  0.00  0.00    +0.134 A 
ATOM      2  C   UNL     1     -11.585   1.349 -17.326  0.00  0.00    +0.028 A 
ATOM      3  C   UNL     1     -11.581  -0.074 -17.362  0.00  0.00    +0.012 A 
ATOM      4  C   UNL     1     -10.848  -0.870 -16.481  0.00  0.00    +0.001 A 
ATOM      5  C   UNL     1     -10.084  -0.262 -15.509  0.00  0.00    +0.001 A 
ATOM      6  C   UNL     1     -10.073   1.130 -15.428  0.00  0.00    +0.012 A 
ATOM      7  C   UNL     1     -10.807   1.977 -16.305  0.00  0.00    +0.028 A 
ATOM      8  C   UNL     1     -10.743   3.401 -16.156  0.00  0.00    +0.132 A 
ATOM      9  C   UNL     1     -11.489   4.154 -17.128  0.00  0.00    +0.029 A 
ATOM     10  C   UNL     1     -11.438   5.569 -17.066  0.00  0.00    +0.013 A 
ATOM     11  C   UNL     1     -12.027   6.408 -18.004  0.00  0.00    +0.017 A 
ATOM     12  C   UNL     1     -12.737   5.856 -19.058  0.00  0.00    +0.081 A 
ATOM     13  C   UNL     1     -12.937   4.460 -19.115  0.00  0.00    +0.057 A 
ATOM     14  C   UNL     1     -12.269   3.553 -18.181  0.00  0.00    +0.050 A 
ENDROOT
BRANCH  12  15
ATOM     15  C   UNL     1     -13.127   6.801 -20.142  0.00  0.00    +0.339 C 
ATOM     16  O   UNL     1     -12.375   7.150 -21.043  0.00  0.00    -0.245 OA
BRANCH  15  17
ATOM     17  O   UNL     1     -14.437   7.144 -20.122  0.00  0.00    -0.477 OA
ATOM     18  H   UNL     1     -14.874   6.814 -20.947  0.00  0.00    +0.295 HD
ENDBRANCH  15  17
ENDBRANCH  12  15
BRANCH  13  19
ATOM     19  N   UNL     1     -13.741   3.883 -20.174  0.00  0.00    -0.313 N 
ATOM     20  H   UNL     1     -13.393   2.889 -20.215  0.00  0.00    +0.152 HD
BRANCH  19  21
ATOM     21  C   UNL     1     -15.155   3.845 -20.326  0.00  0.00    +0.031 A 
ATOM     22  C   UNL     1     -15.654   3.681 -21.630  0.00  0.00    +0.023 A 
ATOM     23  C   UNL     1     -17.023   3.747 -21.898  0.00  0.00    +0.002 A 
ATOM     24  C   UNL     1     -17.919   3.991 -20.863  0.00  0.00    +0.000 A 
ATOM     25  C   UNL     1     -17.443   4.148 -19.563  0.00  0.00    +0.002 A 
ATOM     26  C   UNL     1     -16.070   4.070 -19.296  0.00  0.00    +0.023 A 
ENDBRANCH  19  21
ENDBRANCH  13  19
BRANCH   1  27
ATOM     27  O   UNL     1     -13.020   1.511 -19.227  0.00  0.00    -0.505 OA
ATOM     28  H   UNL     1     -13.951   1.433 -19.150  0.00  0.00    +0.292 HD
ENDBRANCH   1  27
BRANCH   8  29
ATOM     29  O   UNL     1     -10.046   3.966 -15.221  0.00  0.00    -0.506 OA
ATOM     30  H   UNL     1      -9.462   3.453 -14.697  0.00  0.00    +0.292 HD
ENDBRANCH   8  29
TORSDOF 6
ENDMDL
MODEL 3
REMARK VINA RESULT:      -7.6      3.699      5.479
REMARK  Name = min_compound994.pdb
REMARK  6 active torsions:
REMARK  status: ('A' for Active; 'I' for Inactive)
REMARK    1  A    between atoms: _1  and  _12
REMARK    2  A    between atoms: _2  and  _21
REMARK    3  A    between atoms: _8  and  _23
REMARK    4  A    between atoms: _9  and  _23
REMARK    5  A    between atoms: _10  and  _24
REMARK    6  A    between atoms: _24  and  _26
REMARK                            x       y       z     vdW  Elec       q    Type
REMARK                         _______ _______ _______ _____ _____    ______ ____
ROOT
ATOM      1  C   UNL     1     -12.388   2.110 -18.296  0.00  0.00    +0.134 A 
ATOM      2  C   UNL     1     -11.608   1.371 -17.339  0.00  0.00    +0.028 A 
ATOM      3  C   UNL     1     -11.589  -0.052 -17.367  0.00  0.00    +0.012 A 
ATOM      4  C   UNL     1     -10.832  -0.835 -16.495  0.00  0.00    +0.001 A 
ATOM      5  C   UNL     1     -10.056  -0.213 -15.540  0.00  0.00    +0.001 A 
ATOM      6  C   UNL     1     -10.059   1.179 -15.467  0.00  0.00    +0.012 A 
ATOM      7  C   UNL     1     -10.819   2.013 -16.336  0.00  0.00    +0.028 A 
ATOM      8  C   UNL     1     -10.767   3.439 -16.196  0.00  0.00    +0.132 A 
ATOM      9  C   UNL     1     -11.539   4.178 -17.158  0.00  0.00    +0.029 A 
ATOM     10  C   UNL     1     -11.502   5.594 -17.105  0.00  0.00    +0.013 A 
ATOM     11  C   UNL     1     -12.117   6.421 -18.037  0.00  0.00    +0.017 A 
ATOM     12  C   UNL     1     -12.840   5.856 -19.075  0.00  0.00    +0.081 A 
ATOM     13  C   UNL     1     -13.026   4.457 -19.120  0.00  0.00    +0.057 A 
ATOM     14  C   UNL     1     -12.331   3.563 -18.193  0.00  0.00    +0.050 A 
ENDROOT
BRANCH  12  15
ATOM     15  C   UNL     1     -13.261   6.790 -20.156  0.00  0.00    +0.339 C 
ATOM     16  O   UNL     1     -14.409   7.191 -20.299  0.00  0.00    -0.245 OA
BRANCH  15  17
ATOM     17  O   UNL     1     -12.233   7.267 -20.897  0.00  0.00    -0.477 OA
ATOM     18  H   UNL     1     -11.381   6.905 -20.546  0.00  0.00    +0.295 HD
ENDBRANCH  15  17
ENDBRANCH  12  15
BRANCH  13  19
ATOM     19  N   UNL     1     -13.843   3.865 -20.161  0.00  0.00    -0.313 N 
ATOM     20  H   UNL     1     -14.820   4.142 -19.876  0.00  0.00    +0.152 HD
BRANCH  19  21
ATOM     21  C   UNL     1     -13.758   4.005 -21.575  0.00  0.00    +0.031 A 
ATOM     22  C   UNL     1     -14.963   4.198 -22.272  0.00  0.00    +0.023 A 
ATOM     23  C   UNL     1     -14.999   4.230 -23.667  0.00  0.00    +0.002 A 
ATOM     24  C   UNL     1     -13.824   4.058 -24.393  0.00  0.00    +0.000 A 
ATOM     25  C   UNL     1     -12.619   3.875 -23.718  0.00  0.00    +0.002 A 
ATOM     26  C   UNL     1     -12.586   3.854 -22.318  0.00  0.00    +0.023 A 
ENDBRANCH  19  21
ENDBRANCH  13  19
BRANCH   1  27
ATOM     27  O   UNL     1     -13.079   1.507 -19.214  0.00  0.00    -0.505 OA
ATOM     28  H   UNL     1     -12.786   1.519 -20.104  0.00  0.00    +0.292 HD
ENDBRANCH   1  27
BRANCH   8  29
ATOM     29  O   UNL     1     -10.059   4.017 -15.277  0.00  0.00    -0.506 OA
ATOM     30  H   UNL     1      -9.187   4.301 -15.468  0.00  0.00    +0.292 HD
ENDBRANCH   8  29
TORSDOF 6
ENDMDL
MODEL 4
REMARK VINA RESULT:      -7.6      1.857      6.023
REMARK  Name = min_compound994.pdb
REMARK  6 active torsions:
REMARK  status: ('A' for Active; 'I' for Inactive)
REMARK    1  A    between atoms: _1  and  _12
REMARK    2  A    between atoms: _2  and  _21
REMARK    3  A    between atoms: _8  and  _23
REMARK    4  A    between atoms: _9  and  _23
REMARK    5  A    between atoms: _10  and  _24
REMARK    6  A    between atoms: _24  and  _26
REMARK                            x       y       z     vdW  Elec       q    Type
REMARK                         _______ _______ _______ _____ _____    ______ ____
ROOT
ATOM      1  C   UNL     1     -15.287   4.038 -15.281  0.00  0.00    +0.134 A 
ATOM      2  C   UNL     1     -16.099   4.182 -14.102  0.00  0.00    +0.028 A 
ATOM      3  C   UNL     1     -16.532   3.033 -13.379  0.00  0.00    +0.012 A 
ATOM      4  C   UNL     1     -17.292   3.094 -12.210  0.00  0.00    +0.001 A 
ATOM      5  C   UNL     1     -17.659   4.327 -11.715  0.00  0.00    +0.001 A 
ATOM      6  C   UNL     1     -17.270   5.476 -12.401  0.00  0.00    +0.012 A 
ATOM      7  C   UNL     1     -16.498   5.458 -13.597  0.00  0.00    +0.028 A 
ATOM      8  C   UNL     1     -16.138   6.685 -14.243  0.00  0.00    +0.132 A 
ATOM      9  C   UNL     1     -15.317   6.543 -15.417  0.00  0.00    +0.029 A 
ATOM     10  C   UNL     1     -14.890   7.717 -16.084  0.00  0.00    +0.013 A 
ATOM     11  C   UNL     1     -14.013   7.721 -17.163  0.00  0.00    +0.017 A 
ATOM     12  C   UNL     1     -13.537   6.516 -17.654  0.00  0.00    +0.081 A 
ATOM     13  C   UNL     1     -14.018   5.301 -17.121  0.00  0.00    +0.057 A 
ATOM     14  C   UNL     1     -14.884   5.273 -15.942  0.00  0.00    +0.050 A 
ENDROOT
BRANCH  12  15
ATOM     15  C   UNL     1     -12.427   6.614 -18.643  0.00  0.00    +0.339 C 
ATOM     16  O   UNL     1     -12.362   5.936 -19.661  0.00  0.00    -0.245 OA
BRANCH  15  17
ATOM     17  O   UNL     1     -11.553   7.616 -18.388  0.00  0.00    -0.477 OA
ATOM     18  H   UNL     1     -10.894   7.671 -19.124  0.00  0.00    +0.295 HD
ENDBRANCH  15  17
ENDBRANCH  12  15
BRANCH  13  19
ATOM     19  N   UNL     1     -13.579   4.038 -17.681  0.00  0.00    -0.313 N 
ATOM     20  H   UNL     1     -13.573   4.232 -18.717  0.00  0.00    +0.152 HD
BRANCH  19  21
ATOM     21  C   UNL     1     -12.421   3.265 -17.386  0.00  0.00    +0.031 A 
ATOM     22  C   UNL     1     -12.274   2.047 -18.070  0.00  0.00    +0.023 A 
ATOM     23  C   UNL     1     -11.234   1.164 -17.768  0.00  0.00    +0.002 A 
ATOM     24  C   UNL     1     -10.327   1.482 -16.764  0.00  0.00    +0.000 A 
ATOM     25  C   UNL     1     -10.452   2.691 -16.081  0.00  0.00    +0.002 A 
ATOM     26  C   UNL     1     -11.489   3.578 -16.394  0.00  0.00    +0.023 A 
ENDBRANCH  19  21
ENDBRANCH  13  19
BRANCH   1  27
ATOM     27  O   UNL     1     -14.917   2.870 -15.708  0.00  0.00    -0.505 OA
ATOM     28  H   UNL     1     -15.548   2.184 -15.803  0.00  0.00    +0.292 HD
ENDBRANCH   1  27
BRANCH   8  29
ATOM     29  O   UNL     1     -16.512   7.840 -13.789  0.00  0.00    -0.506 OA
ATOM     30  H   UNL     1     -15.968   8.592 -13.920  0.00  0.00    +0.292 HD
ENDBRANCH   8  29
TORSDOF 6
ENDMDL
MODEL 5
REMARK VINA RESULT:      -7.6      1.813      2.151
REMARK  Name = min_compound994.pdb
REMARK  6 active torsions:
REMARK  status: ('A' for Active; 'I' for Inactive)
REMARK    1  A    between atoms: _1  and  _12
REMARK    2  A    between atoms: _2  and  _21
REMARK    3  A    between atoms: _8  and  _23
REMARK    4  A    between atoms: _9  and  _23
REMARK    5  A    between atoms: _10  and  _24
REMARK    6  A    between atoms: _24  and  _26
REMARK                            x       y       z     vdW  Elec       q    Type
REMARK                         _______ _______ _______ _____ _____    ______ ____
ROOT
ATOM      1  C   UNL     1     -12.914   2.971 -15.985  0.00  0.00    +0.134 A 
ATOM      2  C   UNL     1     -11.930   2.015 -16.419  0.00  0.00    +0.028 A 
ATOM      3  C   UNL     1     -10.935   1.543 -15.515  0.00  0.00    +0.012 A 
ATOM      4  C   UNL     1      -9.971   0.593 -15.852  0.00  0.00    +0.001 A 
ATOM      5  C   UNL     1      -9.960   0.074 -17.129  0.00  0.00    +0.001 A 
ATOM      6  C   UNL     1     -10.907   0.521 -18.050  0.00  0.00    +0.012 A 
ATOM      7  C   UNL     1     -11.905   1.491 -17.747  0.00  0.00    +0.028 A 
ATOM      8  C   UNL     1     -12.843   1.898 -18.751  0.00  0.00    +0.132 A 
ATOM      9  C   UNL     1     -13.833   2.847 -18.316  0.00  0.00    +0.029 A 
ATOM     10  C   UNL     1     -14.818   3.264 -19.245  0.00  0.00    +0.013 A 
ATOM     11  C   UNL     1     -15.887   4.093 -18.923  0.00  0.00    +0.017 A 
ATOM     12  C   UNL     1     -16.005   4.578 -17.631  0.00  0.00    +0.081 A 
ATOM     13  C   UNL     1     -14.992   4.308 -16.685  0.00  0.00    +0.057 A 
ATOM     14  C   UNL     1     -13.898   3.382 -16.979  0.00  0.00    +0.050 A 
ENDROOT
BRANCH  12  15
ATOM     15  C   UNL     1     -17.292   5.254 -17.307  0.00  0.00    +0.339 C 
ATOM     16  O   UNL     1     -18.378   4.688 -17.319  0.00  0.00    -0.245 OA
BRANCH  15  17
ATOM     17  O   UNL     1     -17.146   6.526 -16.866  0.00  0.00    -0.477 OA
ATOM     18  H   UNL     1     -17.233   7.149 -17.630  0.00  0.00    +0.295 HD
ENDBRANCH  15  17
ENDBRANCH  12  15
BRANCH  13  19
ATOM     19  N   UNL     1     -15.072   4.873 -15.353  0.00  0.00    -0.313 N 
ATOM     20  H   UNL     1     -15.400   5.858 -15.538  0.00  0.00    +0.152 HD
BRANCH  19  21
ATOM     21  C   UNL     1     -15.769   4.403 -14.204  0.00  0.00    +0.031 A 
ATOM     22  C   UNL     1     -15.486   5.035 -12.981  0.00  0.00    +0.023 A 
ATOM     23  C   UNL     1     -16.028   4.572 -11.781  0.00  0.00    +0.002 A 
ATOM     24  C   UNL     1     -16.858   3.456 -11.782  0.00  0.00    +0.000 A 
ATOM     25  C   UNL     1     -17.157   2.822 -12.987  0.00  0.00    +0.002 A 
ATOM     26  C   UNL     1     -16.620   3.296 -14.190  0.00  0.00    +0.023 A 
ENDBRANCH  19  21
ENDBRANCH  13  19
BRANCH   1  27
ATOM     27  O   UNL     1     -12.933   3.416 -14.767  0.00  0.00    -0.505 OA
ATOM     28  H   UNL     1     -13.407   2.950 -14.105  0.00  0.00    +0.292 HD
ENDBRANCH   1  27
BRANCH   8  29
ATOM     29  O   UNL     1     -12.809   1.429 -19.959  0.00  0.00    -0.506 OA
ATOM     30  H   UNL     1     -12.586   1.993 -20.673  0.00  0.00    +0.292 HD
ENDBRANCH   8  29
TORSDOF 6
ENDMDL
MODEL 6
REMARK VINA RESULT:      -7.3      6.774     10.677
REMARK  Name = min_compound994.pdb
REMARK  6 active torsions:
REMARK  status: ('A' for Active; 'I' for Inactive)
REMARK    1  A    between atoms: _1  and  _12
REMARK    2  A    between atoms: _2  and  _21
REMARK    3  A    between atoms: _8  and  _23
REMARK    4  A    between atoms: _9  and  _23
REMARK    5  A    between atoms: _10  and  _24
REMARK    6  A    between atoms: _24  and  _26
REMARK                            x       y       z     vdW  Elec       q    Type
REMARK                         _______ _______ _______ _____ _____    ______ ____
ROOT
ATOM      1  C   UNL     1     -16.283   2.606  -8.966  0.00  0.00    +0.134 A 
ATOM      2  C   UNL     1     -16.546   3.522 -10.045  0.00  0.00    +0.028 A 
ATOM      3  C   UNL     1     -15.470   4.137 -10.747  0.00  0.00    +0.012 A 
ATOM      4  C   UNL     1     -15.644   5.008 -11.824  0.00  0.00    +0.001 A 
ATOM      5  C   UNL     1     -16.923   5.306 -12.242  0.00  0.00    +0.001 A 
ATOM      6  C   UNL     1     -18.005   4.738 -11.571  0.00  0.00    +0.012 A 
ATOM      7  C   UNL     1     -17.871   3.849 -10.468  0.00  0.00    +0.028 A 
ATOM      8  C   UNL     1     -19.035   3.307  -9.831  0.00  0.00    +0.132 A 
ATOM      9  C   UNL     1     -18.774   2.383  -8.759  0.00  0.00    +0.029 A 
ATOM     10  C   UNL     1     -19.878   1.777  -8.111  0.00  0.00    +0.013 A 
ATOM     11  C   UNL     1     -19.760   0.795  -7.134  0.00  0.00    +0.017 A 
ATOM     12  C   UNL     1     -18.500   0.385  -6.731  0.00  0.00    +0.081 A 
ATOM     13  C   UNL     1     -17.355   1.034  -7.242  0.00  0.00    +0.057 A 
ATOM     14  C   UNL     1     -17.450   2.019  -8.319  0.00  0.00    +0.050 A 
ENDROOT
BRANCH  12  15
ATOM     15  C   UNL     1     -18.457  -0.828  -5.868  0.00  0.00    +0.339 C 
ATOM     16  O   UNL     1     -19.313  -1.099  -5.035  0.00  0.00    -0.245 OA
BRANCH  15  17
ATOM     17  O   UNL     1     -17.452  -1.682  -6.174  0.00  0.00    -0.477 OA
ATOM     18  H   UNL     1     -16.654  -1.164  -6.444  0.00  0.00    +0.295 HD
ENDBRANCH  15  17
ENDBRANCH  12  15
BRANCH  13  19
ATOM     19  N   UNL     1     -16.036   0.660  -6.769  0.00  0.00    -0.313 N 
ATOM     20  H   UNL     1     -15.423   0.868  -7.601  0.00  0.00    +0.152 HD
BRANCH  19  21
ATOM     21  C   UNL     1     -15.332   1.083  -5.607  0.00  0.00    +0.031 A 
ATOM     22  C   UNL     1     -15.806   2.233  -4.954  0.00  0.00    +0.023 A 
ATOM     23  C   UNL     1     -15.118   2.794  -3.876  0.00  0.00    +0.002 A 
ATOM     24  C   UNL     1     -13.931   2.216  -3.438  0.00  0.00    +0.000 A 
ATOM     25  C   UNL     1     -13.451   1.069  -4.067  0.00  0.00    +0.002 A 
ATOM     26  C   UNL     1     -14.150   0.503  -5.141  0.00  0.00    +0.023 A 
ENDBRANCH  19  21
ENDBRANCH  13  19
BRANCH   1  27
ATOM     27  O   UNL     1     -15.072   2.306  -8.615  0.00  0.00    -0.505 OA
ATOM     28  H   UNL     1     -14.870   1.438  -8.322  0.00  0.00    +0.292 HD
ENDBRANCH   1  27
BRANCH   8  29
ATOM     29  O   UNL     1     -20.235   3.615 -10.210  0.00  0.00    -0.506 OA
ATOM     30  H   UNL     1     -20.864   2.938 -10.370  0.00  0.00    +0.292 HD
ENDBRANCH   8  29
TORSDOF 6
ENDMDL
MODEL 7
REMARK VINA RESULT:      -7.2      6.337     10.029
REMARK  Name = min_compound994.pdb
REMARK  6 active torsions:
REMARK  status: ('A' for Active; 'I' for Inactive)
REMARK    1  A    between atoms: _1  and  _12
REMARK    2  A    between atoms: _2  and  _21
REMARK    3  A    between atoms: _8  and  _23
REMARK    4  A    between atoms: _9  and  _23
REMARK    5  A    between atoms: _10  and  _24
REMARK    6  A    between atoms: _24  and  _26
REMARK                            x       y       z     vdW  Elec       q    Type
REMARK                         _______ _______ _______ _____ _____    ______ ____
ROOT
ATOM      1  C   UNL     1     -16.179   1.905  -7.248  0.00  0.00    +0.134 A 
ATOM      2  C   UNL     1     -15.491   1.560  -6.032  0.00  0.00    +0.028 A 
ATOM      3  C   UNL     1     -14.502   0.535  -6.028  0.00  0.00    +0.012 A 
ATOM      4  C   UNL     1     -13.769   0.169  -4.898  0.00  0.00    +0.001 A 
ATOM      5  C   UNL     1     -14.007   0.821  -3.707  0.00  0.00    +0.001 A 
ATOM      6  C   UNL     1     -14.979   1.820  -3.664  0.00  0.00    +0.012 A 
ATOM      7  C   UNL     1     -15.749   2.221  -4.792  0.00  0.00    +0.028 A 
ATOM      8  C   UNL     1     -16.731   3.257  -4.665  0.00  0.00    +0.132 A 
ATOM      9  C   UNL     1     -17.413   3.609  -5.882  0.00  0.00    +0.029 A 
ATOM     10  C   UNL     1     -18.368   4.655  -5.839  0.00  0.00    +0.013 A 
ATOM     11  C   UNL     1     -19.018   5.158  -6.960  0.00  0.00    +0.017 A 
ATOM     12  C   UNL     1     -18.756   4.604  -8.202  0.00  0.00    +0.081 A 
ATOM     13  C   UNL     1     -17.912   3.477  -8.304  0.00  0.00    +0.057 A 
ATOM     14  C   UNL     1     -17.163   2.975  -7.152  0.00  0.00    +0.050 A 
ENDROOT
BRANCH  12  15
ATOM     15  C   UNL     1     -19.301   5.349  -9.372  0.00  0.00    +0.339 C 
ATOM     16  O   UNL     1     -18.915   6.461  -9.709  0.00  0.00    -0.245 OA
BRANCH  15  17
ATOM     17  O   UNL     1     -20.177   4.633 -10.116  0.00  0.00    -0.477 OA
ATOM     18  H   UNL     1     -21.035   5.122 -10.173  0.00  0.00    +0.295 HD
ENDBRANCH  15  17
ENDBRANCH  12  15
BRANCH  13  19
ATOM     19  N   UNL     1     -17.693   2.848  -9.592  0.00  0.00    -0.313 N 
ATOM     20  H   UNL     1     -18.674   2.687  -9.942  0.00  0.00    +0.152 HD
BRANCH  19  21
ATOM     21  C   UNL     1     -16.914   3.287 -10.699  0.00  0.00    +0.031 A 
ATOM     22  C   UNL     1     -15.819   4.122 -10.420  0.00  0.00    +0.023 A 
ATOM     23  C   UNL     1     -15.064   4.698 -11.444  0.00  0.00    +0.002 A 
ATOM     24  C   UNL     1     -15.402   4.457 -12.771  0.00  0.00    +0.000 A 
ATOM     25  C   UNL     1     -16.479   3.624 -13.067  0.00  0.00    +0.002 A 
ATOM     26  C   UNL     1     -17.227   3.039 -12.037  0.00  0.00    +0.023 A 
ENDBRANCH  19  21
ENDBRANCH  13  19
BRANCH   1  27
ATOM     27  O   UNL     1     -15.911   1.308  -8.368  0.00  0.00    -0.505 OA
ATOM     28  H   UNL     1     -15.075   1.426  -8.774  0.00  0.00    +0.292 HD
ENDBRANCH   1  27
BRANCH   8  29
ATOM     29  O   UNL     1     -16.971   3.846  -3.536  0.00  0.00    -0.506 OA
ATOM     30  H   UNL     1     -17.826   3.799  -3.156  0.00  0.00    +0.292 HD
ENDBRANCH   8  29
TORSDOF 6
ENDMDL
MODEL 8
REMARK VINA RESULT:      -7.1      2.274      6.376
REMARK  Name = min_compound994.pdb
REMARK  6 active torsions:
REMARK  status: ('A' for Active; 'I' for Inactive)
REMARK    1  A    between atoms: _1  and  _12
REMARK    2  A    between atoms: _2  and  _21
REMARK    3  A    between atoms: _8  and  _23
REMARK    4  A    between atoms: _9  and  _23
REMARK    5  A    between atoms: _10  and  _24
REMARK    6  A    between atoms: _24  and  _26
REMARK                            x       y       z     vdW  Elec       q    Type
REMARK                         _______ _______ _______ _____ _____    ______ ____
ROOT
ATOM      1  C   UNL     1     -14.148   3.917 -15.199  0.00  0.00    +0.134 A 
ATOM      2  C   UNL     1     -15.078   4.396 -14.211  0.00  0.00    +0.028 A 
ATOM      3  C   UNL     1     -14.654   4.615 -12.869  0.00  0.00    +0.012 A 
ATOM      4  C   UNL     1     -15.487   5.110 -11.864  0.00  0.00    +0.001 A 
ATOM      5  C   UNL     1     -16.799   5.404 -12.168  0.00  0.00    +0.001 A 
ATOM      6  C   UNL     1     -17.259   5.188 -13.466  0.00  0.00    +0.012 A 
ATOM      7  C   UNL     1     -16.443   4.682 -14.518  0.00  0.00    +0.028 A 
ATOM      8  C   UNL     1     -16.992   4.489 -15.828  0.00  0.00    +0.132 A 
ATOM      9  C   UNL     1     -16.062   4.019 -16.819  0.00  0.00    +0.029 A 
ATOM     10  C   UNL     1     -16.526   3.843 -18.146  0.00  0.00    +0.013 A 
ATOM     11  C   UNL     1     -15.707   3.495 -19.214  0.00  0.00    +0.017 A 
ATOM     12  C   UNL     1     -14.358   3.272 -18.992  0.00  0.00    +0.081 A 
ATOM     13  C   UNL     1     -13.850   3.304 -17.675  0.00  0.00    +0.057 A 
ATOM     14  C   UNL     1     -14.674   3.737 -16.547  0.00  0.00    +0.050 A 
ENDROOT
BRANCH  12  15
ATOM     15  C   UNL     1     -13.512   3.143 -20.211  0.00  0.00    +0.339 C 
ATOM     16  O   UNL     1     -13.137   4.095 -20.882  0.00  0.00    -0.245 OA
BRANCH  15  17
ATOM     17  O   UNL     1     -13.079   1.881 -20.445  0.00  0.00    -0.477 OA
ATOM     18  H   UNL     1     -12.878   1.439 -19.582  0.00  0.00    +0.295 HD
ENDBRANCH  15  17
ENDBRANCH  12  15
BRANCH  13  19
ATOM     19  N   UNL     1     -12.454   2.999 -17.428  0.00  0.00    -0.313 N 
ATOM     20  H   UNL     1     -12.241   3.569 -16.566  0.00  0.00    +0.152 HD
BRANCH  19  21
ATOM     21  C   UNL     1     -11.810   1.740 -17.273  0.00  0.00    +0.031 A 
ATOM     22  C   UNL     1     -12.584   0.685 -16.759  0.00  0.00    +0.023 A 
ATOM     23  C   UNL     1     -12.016  -0.556 -16.462  0.00  0.00    +0.002 A 
ATOM     24  C   UNL     1     -10.655  -0.760 -16.666  0.00  0.00    +0.000 A 
ATOM     25  C   UNL     1      -9.875   0.272 -17.184  0.00  0.00    +0.002 A 
ATOM     26  C   UNL     1     -10.450   1.512 -17.491  0.00  0.00    +0.023 A 
ENDBRANCH  19  21
ENDBRANCH  13  19
BRANCH   1  27
ATOM     27  O   UNL     1     -12.907   3.686 -14.904  0.00  0.00    -0.505 OA
ATOM     28  H   UNL     1     -12.244   4.302 -15.149  0.00  0.00    +0.292 HD
ENDBRANCH   1  27
BRANCH   8  29
ATOM     29  O   UNL     1     -18.234   4.738 -16.099  0.00  0.00    -0.506 OA
ATOM     30  H   UNL     1     -18.884   4.664 -15.428  0.00  0.00    +0.292 HD
ENDBRANCH   8  29
TORSDOF 6
ENDMDL
MODEL 9
REMARK VINA RESULT:      -7.0      1.277      1.755
REMARK  Name = min_compound994.pdb
REMARK  6 active torsions:
REMARK  status: ('A' for Active; 'I' for Inactive)
REMARK    1  A    between atoms: _1  and  _12
REMARK    2  A    between atoms: _2  and  _21
REMARK    3  A    between atoms: _8  and  _23
REMARK    4  A    between atoms: _9  and  _23
REMARK    5  A    between atoms: _10  and  _24
REMARK    6  A    between atoms: _24  and  _26
REMARK                            x       y       z     vdW  Elec       q    Type
REMARK                         _______ _______ _______ _____ _____    ______ ____
ROOT
ATOM      1  C   UNL     1     -14.205   2.770 -15.898  0.00  0.00    +0.134 A 
ATOM      2  C   UNL     1     -13.100   2.111 -16.542  0.00  0.00    +0.028 A 
ATOM      3  C   UNL     1     -12.909   0.708 -16.389  0.00  0.00    +0.012 A 
ATOM      4  C   UNL     1     -11.882  -0.006 -17.009  0.00  0.00    +0.001 A 
ATOM      5  C   UNL     1     -10.989   0.669 -17.813  0.00  0.00    +0.001 A 
ATOM      6  C   UNL     1     -11.130   2.046 -17.975  0.00  0.00    +0.012 A 
ATOM      7  C   UNL     1     -12.161   2.812 -17.360  0.00  0.00    +0.028 A 
ATOM      8  C   UNL     1     -12.238   4.226 -17.578  0.00  0.00    +0.132 A 
ATOM      9  C   UNL     1     -13.348   4.885 -16.942  0.00  0.00    +0.029 A 
ATOM     10  C   UNL     1     -13.510   6.277 -17.148  0.00  0.00    +0.013 A 
ATOM     11  C   UNL     1     -14.594   7.009 -16.678  0.00  0.00    +0.017 A 
ATOM     12  C   UNL     1     -15.575   6.371 -15.936  0.00  0.00    +0.081 A 
ATOM     13  C   UNL     1     -15.416   5.013 -15.584  0.00  0.00    +0.057 A 
ATOM     14  C   UNL     1     -14.323   4.205 -16.126  0.00  0.00    +0.050 A 
ENDROOT
BRANCH  12  15
ATOM     15  C   UNL     1     -16.810   7.162 -15.678  0.00  0.00    +0.339 C 
ATOM     16  O   UNL     1     -16.806   8.309 -15.250  0.00  0.00    -0.245 OA
BRANCH  15  17
ATOM     17  O   UNL     1     -17.947   6.548 -16.083  0.00  0.00    -0.477 OA
ATOM     18  H   UNL     1     -17.722   5.845 -16.742  0.00  0.00    +0.295 HD
ENDBRANCH  15  17
ENDBRANCH  12  15
BRANCH  13  19
ATOM     19  N   UNL     1     -16.402   4.359 -14.747  0.00  0.00    -0.313 N 
ATOM     20  H   UNL     1     -16.466   3.396 -15.172  0.00  0.00    +0.152 HD
BRANCH  19  21
ATOM     21  C   UNL     1     -16.437   4.202 -13.333  0.00  0.00    +0.031 A 
ATOM     22  C   UNL     1     -15.479   4.911 -12.588  0.00  0.00    +0.023 A 
ATOM     23  C   UNL     1     -15.355   4.734 -11.208  0.00  0.00    +0.002 A 
ATOM     24  C   UNL     1     -16.185   3.833 -10.549  0.00  0.00    +0.000 A 
ATOM     25  C   UNL     1     -17.147   3.129 -11.271  0.00  0.00    +0.002 A 
ATOM     26  C   UNL     1     -17.275   3.317 -12.653  0.00  0.00    +0.023 A 
ENDBRANCH  19  21
ENDBRANCH  13  19
BRANCH   1  27
ATOM     27  O   UNL     1     -15.060   2.111 -15.179  0.00  0.00    -0.505 OA
ATOM     28  H   UNL     1     -15.892   2.490 -14.975  0.00  0.00    +0.292 HD
ENDBRANCH   1  27
BRANCH   8  29
ATOM     29  O   UNL     1     -11.377   4.859 -18.310  0.00  0.00    -0.506 OA
ATOM     30  H   UNL     1     -11.618   5.154 -19.167  0.00  0.00    +0.292 HD
ENDBRANCH   8  29
TORSDOF 6
ENDMDL
