MODEL 1
REMARK VINA RESULT:      -7.0      0.000      0.000
REMARK  Name = min_compound923.pdb
REMARK  3 active torsions:
REMARK  status: ('A' for Active; 'I' for Inactive)
REMARK    1  A    between atoms: _5  and  _7
REMARK    2  A    between atoms: _6  and  _17
REMARK    3  A    between atoms: _9  and  _18
REMARK                            x       y       z     vdW  Elec       q    Type
REMARK                         _______ _______ _______ _____ _____    ______ ____
ROOT
ATOM      1  C   UNL     1     -12.257   2.266 -17.593  0.00  0.00    +0.250 C 
ATOM      2  N   UNL     1     -12.154   3.380 -16.783  0.00  0.00    -0.280 N 
ATOM      3  H   UNL     1     -11.716   3.184 -15.883  0.00  0.00    +0.155 HD
ATOM      4  O   UNL     1     -13.047   2.110 -18.517  0.00  0.00    -0.270 OA
ENDROOT
BRANCH   2   5
ATOM      5  C   UNL     1     -12.895   4.577 -16.889  0.00  0.00    +0.052 A 
ATOM      6  C   UNL     1     -12.269   5.601 -17.619  0.00  0.00    +0.026 A 
ATOM      7  C   UNL     1     -12.867   6.855 -17.762  0.00  0.00    +0.022 A 
ATOM      8  C   UNL     1     -14.114   7.089 -17.193  0.00  0.00    +0.042 A 
ATOM      9 CL   UNL     1     -14.853   8.633 -17.368  0.00  0.00    -0.083 Cl
ATOM     10  C   UNL     1     -14.778   6.074 -16.512  0.00  0.00    +0.041 A 
ATOM     11  C   UNL     1     -14.184   4.811 -16.373  0.00  0.00    +0.064 A 
ATOM     12 CL   UNL     1     -15.208   3.568 -15.742  0.00  0.00    -0.082 Cl
ENDBRANCH   2   5
BRANCH   1  17
ATOM     13  C   UNL     1      -9.088   0.242 -17.278  0.00  0.00    +0.001 A 
ATOM     14  C   UNL     1      -9.528  -0.915 -16.642  0.00  0.00    +0.002 A 
ATOM     15  C   UNL     1     -10.874  -1.056 -16.297  0.00  0.00    +0.023 A 
ATOM     16  C   UNL     1     -11.794  -0.026 -16.546  0.00  0.00    +0.037 A 
ATOM     17  C   UNL     1     -11.350   1.132 -17.223  0.00  0.00    +0.058 A 
ATOM     18  C   UNL     1      -9.997   1.258 -17.576  0.00  0.00    +0.015 A 
BRANCH  16  19
ATOM     19  N   UNL     1     -13.175  -0.284 -16.323  0.00  0.00    -0.357 N 
ATOM     20  H   UNL     1     -13.666   0.613 -16.251  0.00  0.00    +0.142 HD
ATOM     21  H   UNL     1     -13.581  -0.800 -17.105  0.00  0.00    +0.142 HD
ENDBRANCH  16  19
ENDBRANCH   1  17
TORSDOF 3
ENDMDL
MODEL 2
REMARK VINA RESULT:      -6.8      2.153      2.682
REMARK  Name = min_compound923.pdb
REMARK  3 active torsions:
REMARK  status: ('A' for Active; 'I' for Inactive)
REMARK    1  A    between atoms: _5  and  _7
REMARK    2  A    between atoms: _6  and  _17
REMARK    3  A    between atoms: _9  and  _18
REMARK                            x       y       z     vdW  Elec       q    Type
REMARK                         _______ _______ _______ _____ _____    ______ ____
ROOT
ATOM      1  C   UNL     1     -11.868   2.881 -15.981  0.00  0.00    +0.250 C 
ATOM      2  N   UNL     1     -13.239   2.871 -15.817  0.00  0.00    -0.280 N 
ATOM      3  H   UNL     1     -13.691   2.067 -16.254  0.00  0.00    +0.155 HD
ATOM      4  O   UNL     1     -11.136   3.862 -15.916  0.00  0.00    -0.270 OA
ENDROOT
BRANCH   2   5
ATOM      5  C   UNL     1     -14.063   3.970 -15.491  0.00  0.00    +0.052 A 
ATOM      6  C   UNL     1     -14.519   3.996 -14.161  0.00  0.00    +0.026 A 
ATOM      7  C   UNL     1     -15.381   5.000 -13.715  0.00  0.00    +0.022 A 
ATOM      8  C   UNL     1     -15.777   6.005 -14.590  0.00  0.00    +0.042 A 
ATOM      9 CL   UNL     1     -16.839   7.242 -14.042  0.00  0.00    -0.083 Cl
ATOM     10  C   UNL     1     -15.295   6.030 -15.895  0.00  0.00    +0.041 A 
ATOM     11  C   UNL     1     -14.424   5.028 -16.345  0.00  0.00    +0.064 A 
ATOM     12 CL   UNL     1     -13.694   5.310 -17.888  0.00  0.00    -0.082 Cl
ENDBRANCH   2   5
BRANCH   1  17
ATOM     13  C   UNL     1      -9.747  -0.228 -15.709  0.00  0.00    +0.001 A 
ATOM     14  C   UNL     1     -10.023  -0.890 -16.902  0.00  0.00    +0.002 A 
ATOM     15  C   UNL     1     -10.916  -0.334 -17.820  0.00  0.00    +0.023 A 
ATOM     16  C   UNL     1     -11.577   0.872 -17.544  0.00  0.00    +0.037 A 
ATOM     17  C   UNL     1     -11.267   1.558 -16.349  0.00  0.00    +0.058 A 
ATOM     18  C   UNL     1     -10.359   0.996 -15.437  0.00  0.00    +0.015 A 
BRANCH  16  19
ATOM     19  N   UNL     1     -12.349   1.473 -18.578  0.00  0.00    -0.357 N 
ATOM     20  H   UNL     1     -13.340   1.394 -18.331  0.00  0.00    +0.142 HD
ATOM     21  H   UNL     1     -12.127   2.465 -18.668  0.00  0.00    +0.142 HD
ENDBRANCH  16  19
ENDBRANCH   1  17
TORSDOF 3
ENDMDL
MODEL 3
REMARK VINA RESULT:      -6.6     14.587     16.565
REMARK  Name = min_compound923.pdb
REMARK  3 active torsions:
REMARK  status: ('A' for Active; 'I' for Inactive)
REMARK    1  A    between atoms: _5  and  _7
REMARK    2  A    between atoms: _6  and  _17
REMARK    3  A    between atoms: _9  and  _18
REMARK                            x       y       z     vdW  Elec       q    Type
REMARK                         _______ _______ _______ _____ _____    ______ ____
ROOT
ATOM      1  C   UNL     1     -14.586  -1.370  -3.565  0.00  0.00    +0.250 C 
ATOM      2  N   UNL     1     -14.455  -1.853  -2.278  0.00  0.00    -0.280 N 
ATOM      3  H   UNL     1     -14.161  -1.141  -1.609  0.00  0.00    +0.155 HD
ATOM      4  O   UNL     1     -14.542  -2.031  -4.597  0.00  0.00    -0.270 OA
ENDROOT
BRANCH   2   5
ATOM      5  C   UNL     1     -14.299  -3.201  -1.889  0.00  0.00    +0.052 A 
ATOM      6  C   UNL     1     -13.066  -3.507  -1.288  0.00  0.00    +0.026 A 
ATOM      7  C   UNL     1     -12.758  -4.812  -0.898  0.00  0.00    +0.022 A 
ATOM      8  C   UNL     1     -13.693  -5.824  -1.085  0.00  0.00    +0.042 A 
ATOM      9 CL   UNL     1     -13.316  -7.432  -0.606  0.00  0.00    -0.083 Cl
ATOM     10  C   UNL     1     -14.941  -5.535  -1.628  0.00  0.00    +0.041 A 
ATOM     11  C   UNL     1     -15.258  -4.225  -2.014  0.00  0.00    +0.064 A 
ATOM     12 CL   UNL     1     -16.914  -3.946  -2.427  0.00  0.00    -0.082 Cl
ENDBRANCH   2   5
BRANCH   1  17
ATOM     13  C   UNL     1     -13.594   2.270  -3.507  0.00  0.00    +0.001 A 
ATOM     14  C   UNL     1     -14.795   2.916  -3.786  0.00  0.00    +0.002 A 
ATOM     15  C   UNL     1     -15.956   2.173  -4.006  0.00  0.00    +0.023 A 
ATOM     16  C   UNL     1     -15.928   0.770  -3.989  0.00  0.00    +0.037 A 
ATOM     17  C   UNL     1     -14.715   0.119  -3.670  0.00  0.00    +0.058 A 
ATOM     18  C   UNL     1     -13.556   0.877  -3.440  0.00  0.00    +0.015 A 
BRANCH  16  19
ATOM     19  N   UNL     1     -17.163   0.068  -4.057  0.00  0.00    -0.357 N 
ATOM     20  H   UNL     1     -17.062  -0.705  -4.722  0.00  0.00    +0.142 HD
ATOM     21  H   UNL     1     -17.407  -0.331  -3.150  0.00  0.00    +0.142 HD
ENDBRANCH  16  19
ENDBRANCH   1  17
TORSDOF 3
ENDMDL
MODEL 4
REMARK VINA RESULT:      -6.6     13.423     14.567
REMARK  Name = min_compound923.pdb
REMARK  3 active torsions:
REMARK  status: ('A' for Active; 'I' for Inactive)
REMARK    1  A    between atoms: _5  and  _7
REMARK    2  A    between atoms: _6  and  _17
REMARK    3  A    between atoms: _9  and  _18
REMARK                            x       y       z     vdW  Elec       q    Type
REMARK                         _______ _______ _______ _____ _____    ______ ____
ROOT
ATOM      1  C   UNL     1     -15.229  -2.427  -3.087  0.00  0.00    +0.250 C 
ATOM      2  N   UNL     1     -14.514  -2.178  -4.243  0.00  0.00    -0.280 N 
ATOM      3  H   UNL     1     -13.623  -2.675  -4.278  0.00  0.00    +0.155 HD
ATOM      4  O   UNL     1     -16.100  -1.712  -2.604  0.00  0.00    -0.270 OA
ENDROOT
BRANCH   2   5
ATOM      5  C   UNL     1     -14.675  -1.086  -5.122  0.00  0.00    +0.052 A 
ATOM      6  C   UNL     1     -15.407  -1.367  -6.289  0.00  0.00    +0.026 A 
ATOM      7  C   UNL     1     -15.603  -0.392  -7.269  0.00  0.00    +0.022 A 
ATOM      8  C   UNL     1     -15.086   0.885  -7.081  0.00  0.00    +0.042 A 
ATOM      9 CL   UNL     1     -15.326   2.087  -8.288  0.00  0.00    -0.083 Cl
ATOM     10  C   UNL     1     -14.406   1.201  -5.910  0.00  0.00    +0.041 A 
ATOM     11  C   UNL     1     -14.214   0.228  -4.919  0.00  0.00    +0.064 A 
ATOM     12 CL   UNL     1     -13.590   0.806  -3.413  0.00  0.00    -0.082 Cl
ENDBRANCH   2   5
BRANCH   1  17
ATOM     13  C   UNL     1     -13.030  -4.826  -1.178  0.00  0.00    +0.001 A 
ATOM     14  C   UNL     1     -13.875  -5.912  -0.969  0.00  0.00    +0.002 A 
ATOM     15  C   UNL     1     -15.187  -5.880  -1.444  0.00  0.00    +0.023 A 
ATOM     16  C   UNL     1     -15.688  -4.747  -2.102  0.00  0.00    +0.037 A 
ATOM     17  C   UNL     1     -14.817  -3.661  -2.343  0.00  0.00    +0.058 A 
ATOM     18  C   UNL     1     -13.496  -3.708  -1.871  0.00  0.00    +0.015 A 
BRANCH  16  19
ATOM     19  N   UNL     1     -16.974  -4.827  -2.706  0.00  0.00    -0.357 N 
ATOM     20  H   UNL     1     -17.458  -3.936  -2.561  0.00  0.00    +0.142 HD
ATOM     21  H   UNL     1     -16.896  -4.981  -3.712  0.00  0.00    +0.142 HD
ENDBRANCH  16  19
ENDBRANCH   1  17
TORSDOF 3
ENDMDL
MODEL 5
REMARK VINA RESULT:      -6.6      2.682      6.681
REMARK  Name = min_compound923.pdb
REMARK  3 active torsions:
REMARK  status: ('A' for Active; 'I' for Inactive)
REMARK    1  A    between atoms: _5  and  _7
REMARK    2  A    between atoms: _6  and  _17
REMARK    3  A    between atoms: _9  and  _18
REMARK                            x       y       z     vdW  Elec       q    Type
REMARK                         _______ _______ _______ _____ _____    ______ ____
ROOT
ATOM      1  C   UNL     1     -13.882   4.214 -16.437  0.00  0.00    +0.250 C 
ATOM      2  N   UNL     1     -12.541   4.013 -16.699  0.00  0.00    -0.280 N 
ATOM      3  H   UNL     1     -12.108   4.792 -17.196  0.00  0.00    +0.155 HD
ATOM      4  O   UNL     1     -14.718   3.344 -16.219  0.00  0.00    -0.270 OA
ENDROOT
BRANCH   2   5
ATOM      5  C   UNL     1     -11.855   2.780 -16.718  0.00  0.00    +0.052 A 
ATOM      6  C   UNL     1     -11.138   2.481 -15.546  0.00  0.00    +0.026 A 
ATOM      7  C   UNL     1     -10.375   1.316 -15.445  0.00  0.00    +0.022 A 
ATOM      8  C   UNL     1     -10.340   0.423 -16.511  0.00  0.00    +0.042 A 
ATOM      9 CL   UNL     1      -9.400  -1.012 -16.389  0.00  0.00    -0.083 Cl
ATOM     10  C   UNL     1     -11.085   0.671 -17.659  0.00  0.00    +0.041 A 
ATOM     11  C   UNL     1     -11.859   1.836 -17.761  0.00  0.00    +0.064 A 
ATOM     12 CL   UNL     1     -12.935   1.902 -19.114  0.00  0.00    -0.082 Cl
ENDBRANCH   2   5
BRANCH   1  17
ATOM     13  C   UNL     1     -14.107   7.786 -17.631  0.00  0.00    +0.001 A 
ATOM     14  C   UNL     1     -15.034   8.342 -16.755  0.00  0.00    +0.002 A 
ATOM     15  C   UNL     1     -15.611   7.556 -15.755  0.00  0.00    +0.023 A 
ATOM     16  C   UNL     1     -15.300   6.193 -15.640  0.00  0.00    +0.037 A 
ATOM     17  C   UNL     1     -14.333   5.641 -16.509  0.00  0.00    +0.058 A 
ATOM     18  C   UNL     1     -13.751   6.443 -17.504  0.00  0.00    +0.015 A 
BRANCH  16  19
ATOM     19  N   UNL     1     -15.790   5.480 -14.510  0.00  0.00    -0.357 N 
ATOM     20  H   UNL     1     -16.741   5.160 -14.714  0.00  0.00    +0.142 HD
ATOM     21  H   UNL     1     -15.216   4.657 -14.322  0.00  0.00    +0.142 HD
ENDBRANCH  16  19
ENDBRANCH   1  17
TORSDOF 3
ENDMDL
MODEL 6
REMARK VINA RESULT:      -6.5      2.756      6.997
REMARK  Name = min_compound923.pdb
REMARK  3 active torsions:
REMARK  status: ('A' for Active; 'I' for Inactive)
REMARK    1  A    between atoms: _5  and  _7
REMARK    2  A    between atoms: _6  and  _17
REMARK    3  A    between atoms: _9  and  _18
REMARK                            x       y       z     vdW  Elec       q    Type
REMARK                         _______ _______ _______ _____ _____    ______ ____
ROOT
ATOM      1  C   UNL     1     -13.841   4.752 -16.857  0.00  0.00    +0.250 C 
ATOM      2  N   UNL     1     -13.270   3.994 -15.854  0.00  0.00    -0.280 N 
ATOM      3  H   UNL     1     -13.215   4.484 -14.961  0.00  0.00    +0.155 HD
ATOM      4  O   UNL     1     -13.693   4.592 -18.063  0.00  0.00    -0.270 OA
ENDROOT
BRANCH   2   5
ATOM      5  C   UNL     1     -12.447   2.858 -16.013  0.00  0.00    +0.052 A 
ATOM      6  C   UNL     1     -13.113   1.699 -16.450  0.00  0.00    +0.026 A 
ATOM      7  C   UNL     1     -12.431   0.491 -16.604  0.00  0.00    +0.022 A 
ATOM      8  C   UNL     1     -11.066   0.434 -16.344  0.00  0.00    +0.042 A 
ATOM      9 CL   UNL     1     -10.224  -1.054 -16.532  0.00  0.00    -0.083 Cl
ATOM     10  C   UNL     1     -10.376   1.580 -15.963  0.00  0.00    +0.041 A 
ATOM     11  C   UNL     1     -11.055   2.798 -15.815  0.00  0.00    +0.064 A 
ATOM     12 CL   UNL     1     -10.054   4.191 -15.596  0.00  0.00    -0.082 Cl
ENDBRANCH   2   5
BRANCH   1  17
ATOM     13  C   UNL     1     -16.487   6.677 -14.979  0.00  0.00    +0.001 A 
ATOM     14  C   UNL     1     -16.288   7.981 -15.423  0.00  0.00    +0.002 A 
ATOM     15  C   UNL     1     -15.277   8.260 -16.345  0.00  0.00    +0.023 A 
ATOM     16  C   UNL     1     -14.424   7.246 -16.808  0.00  0.00    +0.037 A 
ATOM     17  C   UNL     1     -14.653   5.919 -16.381  0.00  0.00    +0.058 A 
ATOM     18  C   UNL     1     -15.679   5.648 -15.463  0.00  0.00    +0.015 A 
BRANCH  16  19
ATOM     19  N   UNL     1     -13.519   7.552 -17.863  0.00  0.00    -0.357 N 
ATOM     20  H   UNL     1     -14.034   7.532 -18.749  0.00  0.00    +0.142 HD
ATOM     21  H   UNL     1     -13.129   8.488 -17.749  0.00  0.00    +0.142 HD
ENDBRANCH  16  19
ENDBRANCH   1  17
TORSDOF 3
ENDMDL
MODEL 7
REMARK VINA RESULT:      -6.4      1.974      2.533
REMARK  Name = min_compound923.pdb
REMARK  3 active torsions:
REMARK  status: ('A' for Active; 'I' for Inactive)
REMARK    1  A    between atoms: _5  and  _7
REMARK    2  A    between atoms: _6  and  _17
REMARK    3  A    between atoms: _9  and  _18
REMARK                            x       y       z     vdW  Elec       q    Type
REMARK                         _______ _______ _______ _____ _____    ______ ____
ROOT
ATOM      1  C   UNL     1     -13.230   3.364 -17.299  0.00  0.00    +0.250 C 
ATOM      2  N   UNL     1     -12.930   4.603 -16.766  0.00  0.00    -0.280 N 
ATOM      3  H   UNL     1     -12.232   4.562 -16.023  0.00  0.00    +0.155 HD
ATOM      4  O   UNL     1     -14.256   3.060 -17.896  0.00  0.00    -0.270 OA
ENDROOT
BRANCH   2   5
ATOM      5  C   UNL     1     -13.714   5.774 -16.846  0.00  0.00    +0.052 A 
ATOM      6  C   UNL     1     -14.863   5.775 -16.036  0.00  0.00    +0.026 A 
ATOM      7  C   UNL     1     -15.756   6.849 -16.052  0.00  0.00    +0.022 A 
ATOM      8  C   UNL     1     -15.494   7.947 -16.865  0.00  0.00    +0.042 A 
ATOM      9 CL   UNL     1     -16.592   9.271 -16.886  0.00  0.00    -0.083 Cl
ATOM     10  C   UNL     1     -14.335   7.992 -17.633  0.00  0.00    +0.041 A 
ATOM     11  C   UNL     1     -13.433   6.919 -17.614  0.00  0.00    +0.064 A 
ATOM     12 CL   UNL     1     -11.918   7.202 -18.399  0.00  0.00    -0.082 Cl
ENDBRANCH   2   5
BRANCH   1  17
ATOM     13  C   UNL     1     -10.549   1.420 -15.492  0.00  0.00    +0.001 A 
ATOM     14  C   UNL     1     -10.242   0.410 -16.398  0.00  0.00    +0.002 A 
ATOM     15  C   UNL     1     -10.912   0.339 -17.621  0.00  0.00    +0.023 A 
ATOM     16  C   UNL     1     -11.926   1.255 -17.941  0.00  0.00    +0.037 A 
ATOM     17  C   UNL     1     -12.209   2.299 -17.033  0.00  0.00    +0.058 A 
ATOM     18  C   UNL     1     -11.522   2.367 -15.811  0.00  0.00    +0.015 A 
BRANCH  16  19
ATOM     19  N   UNL     1     -12.462   1.238 -19.259  0.00  0.00    -0.357 N 
ATOM     20  H   UNL     1     -13.409   0.848 -19.220  0.00  0.00    +0.142 HD
ATOM     21  H   UNL     1     -12.529   2.183 -19.637  0.00  0.00    +0.142 HD
ENDBRANCH  16  19
ENDBRANCH   1  17
TORSDOF 3
ENDMDL
MODEL 8
REMARK VINA RESULT:      -6.3      3.967      5.132
REMARK  Name = min_compound923.pdb
REMARK  3 active torsions:
REMARK  status: ('A' for Active; 'I' for Inactive)
REMARK    1  A    between atoms: _5  and  _7
REMARK    2  A    between atoms: _6  and  _17
REMARK    3  A    between atoms: _9  and  _18
REMARK                            x       y       z     vdW  Elec       q    Type
REMARK                         _______ _______ _______ _____ _____    ______ ____
ROOT
ATOM      1  C   UNL     1     -14.070   3.989 -15.523  0.00  0.00    +0.250 C 
ATOM      2  N   UNL     1     -14.376   5.003 -16.409  0.00  0.00    -0.280 N 
ATOM      3  H   UNL     1     -15.358   5.279 -16.380  0.00  0.00    +0.155 HD
ATOM      4  O   UNL     1     -13.119   3.219 -15.602  0.00  0.00    -0.270 OA
ENDROOT
BRANCH   2   5
ATOM      5  C   UNL     1     -13.635   5.389 -17.547  0.00  0.00    +0.052 A 
ATOM      6  C   UNL     1     -12.809   6.511 -17.365  0.00  0.00    +0.026 A 
ATOM      7  C   UNL     1     -12.056   7.031 -18.421  0.00  0.00    +0.022 A 
ATOM      8  C   UNL     1     -12.106   6.417 -19.667  0.00  0.00    +0.042 A 
ATOM      9 CL   UNL     1     -11.180   7.056 -20.969  0.00  0.00    -0.083 Cl
ATOM     10  C   UNL     1     -12.874   5.273 -19.857  0.00  0.00    +0.041 A 
ATOM     11  C   UNL     1     -13.625   4.743 -18.798  0.00  0.00    +0.064 A 
ATOM     12 CL   UNL     1     -14.324   3.186 -19.082  0.00  0.00    -0.082 Cl
ENDBRANCH   2   5
BRANCH   1  17
ATOM     13  C   UNL     1     -15.813   4.518 -12.219  0.00  0.00    +0.001 A 
ATOM     14  C   UNL     1     -16.807   3.545 -12.240  0.00  0.00    +0.002 A 
ATOM     15  C   UNL     1     -16.933   2.696 -13.342  0.00  0.00    +0.023 A 
ATOM     16  C   UNL     1     -16.091   2.832 -14.456  0.00  0.00    +0.037 A 
ATOM     17  C   UNL     1     -15.061   3.798 -14.415  0.00  0.00    +0.058 A 
ATOM     18  C   UNL     1     -14.937   4.639 -13.298  0.00  0.00    +0.015 A 
BRANCH  16  19
ATOM     19  N   UNL     1     -16.155   1.844 -15.478  0.00  0.00    -0.357 N 
ATOM     20  H   UNL     1     -16.687   1.043 -15.123  0.00  0.00    +0.142 HD
ATOM     21  H   UNL     1     -16.640   2.201 -16.302  0.00  0.00    +0.142 HD
ENDBRANCH  16  19
ENDBRANCH   1  17
TORSDOF 3
ENDMDL
MODEL 9
REMARK VINA RESULT:      -6.3      2.556      3.372
REMARK  Name = min_compound923.pdb
REMARK  3 active torsions:
REMARK  status: ('A' for Active; 'I' for Inactive)
REMARK    1  A    between atoms: _5  and  _7
REMARK    2  A    between atoms: _6  and  _17
REMARK    3  A    between atoms: _9  and  _18
REMARK                            x       y       z     vdW  Elec       q    Type
REMARK                         _______ _______ _______ _____ _____    ______ ____
ROOT
ATOM      1  C   UNL     1     -13.048   3.321 -15.999  0.00  0.00    +0.250 C 
ATOM      2  N   UNL     1     -14.170   3.149 -15.211  0.00  0.00    -0.280 N 
ATOM      3  H   UNL     1     -14.423   2.169 -15.081  0.00  0.00    +0.155 HD
ATOM      4  O   UNL     1     -12.748   4.332 -16.623  0.00  0.00    -0.270 OA
ENDROOT
BRANCH   2   5
ATOM      5  C   UNL     1     -15.163   4.111 -14.926  0.00  0.00    +0.052 A 
ATOM      6  C   UNL     1     -15.035   4.745 -13.679  0.00  0.00    +0.026 A 
ATOM      7  C   UNL     1     -15.975   5.684 -13.247  0.00  0.00    +0.022 A 
ATOM      8  C   UNL     1     -17.043   6.015 -14.072  0.00  0.00    +0.042 A 
ATOM      9 CL   UNL     1     -18.203   7.170 -13.542  0.00  0.00    -0.083 Cl
ATOM     10  C   UNL     1     -17.161   5.441 -15.334  0.00  0.00    +0.041 A 
ATOM     11  C   UNL     1     -16.215   4.504 -15.775  0.00  0.00    +0.064 A 
ATOM     12 CL   UNL     1     -16.321   4.063 -17.444  0.00  0.00    -0.082 Cl
ENDBRANCH   2   5
BRANCH   1  17
ATOM     13  C   UNL     1     -12.078  -0.264 -16.662  0.00  0.00    +0.001 A 
ATOM     14  C   UNL     1     -10.711  -0.263 -16.398  0.00  0.00    +0.002 A 
ATOM     15  C   UNL     1     -10.076   0.916 -16.003  0.00  0.00    +0.023 A 
ATOM     16  C   UNL     1     -10.788   2.120 -15.902  0.00  0.00    +0.037 A 
ATOM     17  C   UNL     1     -12.181   2.107 -16.136  0.00  0.00    +0.058 A 
ATOM     18  C   UNL     1     -12.812   0.914 -16.522  0.00  0.00    +0.015 A 
BRANCH  16  19
ATOM     19  N   UNL     1     -10.130   3.251 -15.342  0.00  0.00    -0.357 N 
ATOM     20  H   UNL     1     -10.175   4.021 -16.016  0.00  0.00    +0.142 HD
ATOM     21  H   UNL     1     -10.596   3.557 -14.487  0.00  0.00    +0.142 HD
ENDBRANCH  16  19
ENDBRANCH   1  17
TORSDOF 3
ENDMDL
