MODEL 1
REMARK VINA RESULT:      -7.7      0.000      0.000
REMARK  Name = min_compound988.pdb
REMARK  7 active torsions:
REMARK  status: ('A' for Active; 'I' for Inactive)
REMARK    1  A    between atoms: _2  and  _21
REMARK    2  A    between atoms: _8  and  _14
REMARK    3  A    between atoms: _10  and  _12
REMARK    4  A    between atoms: _13  and  _14
REMARK    5  A    between atoms: _13  and  _17
REMARK    6  A    between atoms: _14  and  _15
REMARK    7  A    between atoms: _14  and  _16
REMARK                            x       y       z     vdW  Elec       q    Type
REMARK                         _______ _______ _______ _____ _____    ______ ____
ROOT
ATOM      1  O   UNL     1     -14.654   3.796 -15.796  0.00  0.00    -0.342 OA
ENDROOT
BRANCH   1   3
ATOM      2  N   UNL     1     -13.510   1.915 -16.335  0.00  0.00    -0.216 NA
ATOM      3  C   UNL     1     -13.426   3.208 -15.952  0.00  0.00    +0.248 A 
ATOM      4  C   UNL     1     -12.203   3.846 -15.688  0.00  0.00    +0.092 A 
ATOM      5  C   UNL     1     -10.999   3.155 -15.842  0.00  0.00    +0.035 A 
ATOM      6  C   UNL     1     -11.092   1.815 -16.158  0.00  0.00    -0.005 A 
ATOM      7  C   UNL     1     -10.024   0.770 -16.204  0.00  0.00    +0.039 C 
ATOM      8  C   UNL     1     -10.738  -0.366 -16.948  0.00  0.00    +0.011 C 
ATOM      9  C   UNL     1     -12.231  -0.227 -16.625  0.00  0.00    +0.056 C 
ATOM     10  C   UNL     1     -12.342   1.255 -16.400  0.00  0.00    +0.050 A 
BRANCH   5  11
ATOM     11  N   UNL     1      -9.794   3.733 -15.440  0.00  0.00    -0.358 N 
ATOM     12  H   UNL     1      -9.442   4.467 -16.048  0.00  0.00    +0.142 HD
ATOM     13  H   UNL     1      -9.070   3.070 -15.183  0.00  0.00    +0.142 HD
ENDBRANCH   5  11
ENDBRANCH   1   3
BRANCH   1  14
ATOM     14  S   UNL     1     -15.918   2.993 -15.705  0.00  0.00    -0.013 S 
BRANCH  14  15
ATOM     15  C   UNL     1     -16.036   3.437 -13.801  0.00  0.00    +0.098 A 
ATOM     16  C   UNL     1     -15.138   4.354 -13.230  0.00  0.00    +0.028 A 
ATOM     17  C   UNL     1     -15.246   4.673 -11.874  0.00  0.00    +0.005 A 
ATOM     18  C   UNL     1     -16.234   4.083 -11.076  0.00  0.00    -0.050 A 
ATOM     19  C   UNL     1     -16.380   4.478  -9.636  0.00  0.00    +0.044 C 
ATOM     20  C   UNL     1     -17.131   3.177 -11.656  0.00  0.00    +0.005 A 
ATOM     21  C   UNL     1     -17.033   2.845 -13.011  0.00  0.00    +0.028 A 
ENDBRANCH  14  15
BRANCH  14  22
ATOM     22  O   UNL     1     -16.596   4.157 -16.341  0.00  0.00    -0.263 OA
ATOM     23  H   UNL     1     -17.427   3.864 -16.746  0.00  0.00    +0.244 HD
ENDBRANCH  14  22
BRANCH  14  24
ATOM     24  O   UNL     1     -17.182   2.191 -15.614  0.00  0.00    -0.263 OA
ATOM     25  H   UNL     1     -17.108   1.405 -16.177  0.00  0.00    +0.244 HD
ENDBRANCH  14  24
ENDBRANCH   1  14
TORSDOF 6
ENDMDL
MODEL 2
REMARK VINA RESULT:      -7.2      1.343      2.034
REMARK  Name = min_compound988.pdb
REMARK  7 active torsions:
REMARK  status: ('A' for Active; 'I' for Inactive)
REMARK    1  A    between atoms: _2  and  _21
REMARK    2  A    between atoms: _8  and  _14
REMARK    3  A    between atoms: _10  and  _12
REMARK    4  A    between atoms: _13  and  _14
REMARK    5  A    between atoms: _13  and  _17
REMARK    6  A    between atoms: _14  and  _15
REMARK    7  A    between atoms: _14  and  _16
REMARK                            x       y       z     vdW  Elec       q    Type
REMARK                         _______ _______ _______ _____ _____    ______ ____
ROOT
ATOM      1  O   UNL     1     -13.835   4.231 -15.678  0.00  0.00    -0.342 OA
ENDROOT
BRANCH   1   3
ATOM      2  N   UNL     1     -12.217   2.656 -15.484  0.00  0.00    -0.216 NA
ATOM      3  C   UNL     1     -13.160   3.202 -16.282  0.00  0.00    +0.248 A 
ATOM      4  C   UNL     1     -13.371   2.787 -17.607  0.00  0.00    +0.092 A 
ATOM      5  C   UNL     1     -12.610   1.748 -18.150  0.00  0.00    +0.035 A 
ATOM      6  C   UNL     1     -11.597   1.247 -17.359  0.00  0.00    -0.005 A 
ATOM      7  C   UNL     1     -10.503   0.288 -17.706  0.00  0.00    +0.039 C 
ATOM      8  C   UNL     1      -9.977  -0.092 -16.316  0.00  0.00    +0.011 C 
ATOM      9  C   UNL     1     -10.234   1.117 -15.407  0.00  0.00    +0.056 C 
ATOM     10  C   UNL     1     -11.450   1.715 -16.057  0.00  0.00    +0.050 A 
BRANCH   5  11
ATOM     11  N   UNL     1     -12.709   1.432 -19.506  0.00  0.00    -0.358 N 
ATOM     12  H   UNL     1     -12.411   2.165 -20.144  0.00  0.00    +0.142 HD
ATOM     13  H   UNL     1     -13.595   1.022 -19.782  0.00  0.00    +0.142 HD
ENDBRANCH   5  11
ENDBRANCH   1   3
BRANCH   1  14
ATOM     14  S   UNL     1     -15.268   4.541 -15.995  0.00  0.00    -0.013 S 
BRANCH  14  15
ATOM     15  C   UNL     1     -15.745   4.124 -14.142  0.00  0.00    +0.098 A 
ATOM     16  C   UNL     1     -15.051   4.725 -13.080  0.00  0.00    +0.028 A 
ATOM     17  C   UNL     1     -15.415   4.432 -11.762  0.00  0.00    +0.005 A 
ATOM     18  C   UNL     1     -16.458   3.537 -11.490  0.00  0.00    -0.050 A 
ATOM     19  C   UNL     1     -16.880   3.275 -10.075  0.00  0.00    +0.044 C 
ATOM     20  C   UNL     1     -17.151   2.951 -12.557  0.00  0.00    +0.005 A 
ATOM     21  C   UNL     1     -16.796   3.232 -13.879  0.00  0.00    +0.028 A 
ENDBRANCH  14  15
BRANCH  14  22
ATOM     22  O   UNL     1     -14.884   5.976 -15.905  0.00  0.00    -0.263 OA
ATOM     23  H   UNL     1     -14.127   6.071 -15.306  0.00  0.00    +0.244 HD
ENDBRANCH  14  22
BRANCH  14  24
ATOM     24  O   UNL     1     -16.701   4.851 -16.313  0.00  0.00    -0.263 OA
ATOM     25  H   UNL     1     -17.267   4.547 -15.586  0.00  0.00    +0.244 HD
ENDBRANCH  14  24
ENDBRANCH   1  14
TORSDOF 6
ENDMDL
MODEL 3
REMARK VINA RESULT:      -7.1      4.533      6.508
REMARK  Name = min_compound988.pdb
REMARK  7 active torsions:
REMARK  status: ('A' for Active; 'I' for Inactive)
REMARK    1  A    between atoms: _2  and  _21
REMARK    2  A    between atoms: _8  and  _14
REMARK    3  A    between atoms: _10  and  _12
REMARK    4  A    between atoms: _13  and  _14
REMARK    5  A    between atoms: _13  and  _17
REMARK    6  A    between atoms: _14  and  _15
REMARK    7  A    between atoms: _14  and  _16
REMARK                            x       y       z     vdW  Elec       q    Type
REMARK                         _______ _______ _______ _____ _____    ______ ____
ROOT
ATOM      1  O   UNL     1     -13.134   3.099 -19.207  0.00  0.00    -0.342 OA
ENDROOT
BRANCH   1   3
ATOM      2  N   UNL     1     -12.145   1.316 -18.219  0.00  0.00    -0.216 NA
ATOM      3  C   UNL     1     -12.268   2.661 -18.240  0.00  0.00    +0.248 A 
ATOM      4  C   UNL     1     -11.616   3.500 -17.320  0.00  0.00    +0.092 A 
ATOM      5  C   UNL     1     -10.776   2.959 -16.344  0.00  0.00    +0.035 A 
ATOM      6  C   UNL     1     -10.714   1.582 -16.277  0.00  0.00    -0.005 A 
ATOM      7  C   UNL     1     -10.075   0.706 -15.248  0.00  0.00    +0.039 C 
ATOM      8  C   UNL     1     -10.076  -0.653 -15.960  0.00  0.00    +0.011 C 
ATOM      9  C   UNL     1     -11.279  -0.646 -16.912  0.00  0.00    +0.056 C 
ATOM     10  C   UNL     1     -11.393   0.820 -17.222  0.00  0.00    +0.050 A 
BRANCH   5  11
ATOM     11  N   UNL     1     -10.246   3.768 -15.339  0.00  0.00    -0.358 N 
ATOM     12  H   UNL     1     -10.151   4.751 -15.579  0.00  0.00    +0.142 HD
ATOM     13  H   UNL     1      -9.409   3.402 -14.895  0.00  0.00    +0.142 HD
ENDBRANCH   5  11
ENDBRANCH   1   3
BRANCH   1  14
ATOM     14  S   UNL     1     -14.110   4.212 -18.961  0.00  0.00    -0.013 S 
BRANCH  14  15
ATOM     15  C   UNL     1     -13.004   5.395 -20.062  0.00  0.00    +0.098 A 
ATOM     16  C   UNL     1     -13.008   5.269 -21.460  0.00  0.00    +0.028 A 
ATOM     17  C   UNL     1     -12.228   6.133 -22.234  0.00  0.00    +0.005 A 
ATOM     18  C   UNL     1     -11.435   7.116 -21.629  0.00  0.00    -0.050 A 
ATOM     19  C   UNL     1     -10.648   8.078 -22.471  0.00  0.00    +0.044 C 
ATOM     20  C   UNL     1     -11.446   7.241 -20.235  0.00  0.00    +0.005 A 
ATOM     21  C   UNL     1     -12.219   6.382 -19.448  0.00  0.00    +0.028 A 
ENDBRANCH  14  15
BRANCH  14  22
ATOM     22  O   UNL     1     -14.977   3.555 -19.978  0.00  0.00    -0.263 OA
ATOM     23  H   UNL     1     -15.871   3.926 -19.927  0.00  0.00    +0.244 HD
ENDBRANCH  14  22
BRANCH  14  24
ATOM     24  O   UNL     1     -15.086   5.324 -18.714  0.00  0.00    -0.263 OA
ATOM     25  H   UNL     1     -15.986   5.011 -18.895  0.00  0.00    +0.244 HD
ENDBRANCH  14  24
ENDBRANCH   1  14
TORSDOF 6
ENDMDL
MODEL 4
REMARK VINA RESULT:      -7.0      2.226      6.574
REMARK  Name = min_compound988.pdb
REMARK  7 active torsions:
REMARK  status: ('A' for Active; 'I' for Inactive)
REMARK    1  A    between atoms: _2  and  _21
REMARK    2  A    between atoms: _8  and  _14
REMARK    3  A    between atoms: _10  and  _12
REMARK    4  A    between atoms: _13  and  _14
REMARK    5  A    between atoms: _13  and  _17
REMARK    6  A    between atoms: _14  and  _15
REMARK    7  A    between atoms: _14  and  _16
REMARK                            x       y       z     vdW  Elec       q    Type
REMARK                         _______ _______ _______ _____ _____    ______ ____
ROOT
ATOM      1  O   UNL     1     -13.687   3.882 -17.282  0.00  0.00    -0.342 OA
ENDROOT
BRANCH   1   3
ATOM      2  N   UNL     1     -14.263   4.327 -15.136  0.00  0.00    -0.216 NA
ATOM      3  C   UNL     1     -14.664   3.821 -16.322  0.00  0.00    +0.248 A 
ATOM      4  C   UNL     1     -15.929   3.244 -16.516  0.00  0.00    +0.092 A 
ATOM      5  C   UNL     1     -16.852   3.196 -15.468  0.00  0.00    +0.035 A 
ATOM      6  C   UNL     1     -16.412   3.642 -14.239  0.00  0.00    -0.005 A 
ATOM      7  C   UNL     1     -17.070   3.550 -12.900  0.00  0.00    +0.039 C 
ATOM      8  C   UNL     1     -16.225   4.529 -12.074  0.00  0.00    +0.011 C 
ATOM      9  C   UNL     1     -14.822   4.525 -12.695  0.00  0.00    +0.056 C 
ATOM     10  C   UNL     1     -15.141   4.197 -14.127  0.00  0.00    +0.050 A 
BRANCH   5  11
ATOM     11  N   UNL     1     -18.049   2.494 -15.609  0.00  0.00    -0.358 N 
ATOM     12  H   UNL     1     -18.141   1.964 -16.471  0.00  0.00    +0.142 HD
ATOM     13  H   UNL     1     -18.884   3.031 -15.401  0.00  0.00    +0.142 HD
ENDBRANCH   5  11
ENDBRANCH   1   3
BRANCH   1  14
ATOM     14  S   UNL     1     -12.368   4.553 -17.037  0.00  0.00    -0.013 S 
BRANCH  14  15
ATOM     15  C   UNL     1     -11.551   2.795 -16.758  0.00  0.00    +0.098 A 
ATOM     16  C   UNL     1     -11.585   1.828 -17.776  0.00  0.00    +0.028 A 
ATOM     17  C   UNL     1     -10.982   0.585 -17.568  0.00  0.00    +0.005 A 
ATOM     18  C   UNL     1     -10.352   0.289 -16.353  0.00  0.00    -0.050 A 
ATOM     19  C   UNL     1      -9.655  -1.026 -16.162  0.00  0.00    +0.044 C 
ATOM     20  C   UNL     1     -10.314   1.263 -15.348  0.00  0.00    +0.005 A 
ATOM     21  C   UNL     1     -10.916   2.510 -15.540  0.00  0.00    +0.028 A 
ENDBRANCH  14  15
BRANCH  14  22
ATOM     22  O   UNL     1     -12.276   4.711 -18.515  0.00  0.00    -0.263 OA
ATOM     23  H   UNL     1     -12.351   3.842 -18.938  0.00  0.00    +0.244 HD
ENDBRANCH  14  22
BRANCH  14  24
ATOM     24  O   UNL     1     -11.049   5.224 -16.792  0.00  0.00    -0.263 OA
ATOM     25  H   UNL     1     -10.419   4.960 -17.480  0.00  0.00    +0.244 HD
ENDBRANCH  14  24
ENDBRANCH   1  14
TORSDOF 6
ENDMDL
MODEL 5
REMARK VINA RESULT:      -7.0      3.861      6.281
REMARK  Name = min_compound988.pdb
REMARK  7 active torsions:
REMARK  status: ('A' for Active; 'I' for Inactive)
REMARK    1  A    between atoms: _2  and  _21
REMARK    2  A    between atoms: _8  and  _14
REMARK    3  A    between atoms: _10  and  _12
REMARK    4  A    between atoms: _13  and  _14
REMARK    5  A    between atoms: _13  and  _17
REMARK    6  A    between atoms: _14  and  _15
REMARK    7  A    between atoms: _14  and  _16
REMARK                            x       y       z     vdW  Elec       q    Type
REMARK                         _______ _______ _______ _____ _____    ______ ____
ROOT
ATOM      1  O   UNL     1     -13.272   4.179 -16.699  0.00  0.00    -0.342 OA
ENDROOT
BRANCH   1   3
ATOM      2  N   UNL     1     -12.286   5.521 -18.237  0.00  0.00    -0.216 NA
ATOM      3  C   UNL     1     -13.129   4.487 -18.027  0.00  0.00    +0.248 A 
ATOM      4  C   UNL     1     -13.822   3.846 -19.067  0.00  0.00    +0.092 A 
ATOM      5  C   UNL     1     -13.637   4.250 -20.392  0.00  0.00    +0.035 A 
ATOM      6  C   UNL     1     -12.837   5.356 -20.594  0.00  0.00    -0.005 A 
ATOM      7  C   UNL     1     -12.597   6.143 -21.842  0.00  0.00    +0.039 C 
ATOM      8  C   UNL     1     -11.371   6.978 -21.446  0.00  0.00    +0.011 C 
ATOM      9  C   UNL     1     -11.453   7.180 -19.928  0.00  0.00    +0.056 C 
ATOM     10  C   UNL     1     -12.188   5.938 -19.510  0.00  0.00    +0.050 A 
BRANCH   5  11
ATOM     11  N   UNL     1     -14.431   3.722 -21.411  0.00  0.00    -0.358 N 
ATOM     12  H   UNL     1     -15.071   2.987 -21.123  0.00  0.00    +0.142 HD
ATOM     13  H   UNL     1     -13.928   3.480 -22.258  0.00  0.00    +0.142 HD
ENDBRANCH   5  11
ENDBRANCH   1   3
BRANCH   1  14
ATOM     14  S   UNL     1     -14.201   3.102 -16.225  0.00  0.00    -0.013 S 
BRANCH  14  15
ATOM     15  C   UNL     1     -12.695   1.850 -16.190  0.00  0.00    +0.098 A 
ATOM     16  C   UNL     1     -12.841   0.553 -16.707  0.00  0.00    +0.028 A 
ATOM     17  C   UNL     1     -11.751  -0.323 -16.691  0.00  0.00    +0.005 A 
ATOM     18  C   UNL     1     -10.520   0.076 -16.158  0.00  0.00    -0.050 A 
ATOM     19  C   UNL     1      -9.340  -0.850 -16.201  0.00  0.00    +0.044 C 
ATOM     20  C   UNL     1     -10.382   1.375 -15.654  0.00  0.00    +0.005 A 
ATOM     21  C   UNL     1     -11.463   2.261 -15.659  0.00  0.00    +0.028 A 
ENDBRANCH  14  15
BRANCH  14  22
ATOM     22  O   UNL     1     -14.110   3.740 -14.882  0.00  0.00    -0.263 OA
ATOM     23  H   UNL     1     -14.943   4.196 -14.684  0.00  0.00    +0.244 HD
ENDBRANCH  14  22
BRANCH  14  24
ATOM     24  O   UNL     1     -15.131   2.025 -15.750  0.00  0.00    -0.263 OA
ATOM     25  H   UNL     1     -16.001   2.408 -15.560  0.00  0.00    +0.244 HD
ENDBRANCH  14  24
ENDBRANCH   1  14
TORSDOF 6
ENDMDL
MODEL 6
REMARK VINA RESULT:      -6.9      3.162      6.840
REMARK  Name = min_compound988.pdb
REMARK  7 active torsions:
REMARK  status: ('A' for Active; 'I' for Inactive)
REMARK    1  A    between atoms: _2  and  _21
REMARK    2  A    between atoms: _8  and  _14
REMARK    3  A    between atoms: _10  and  _12
REMARK    4  A    between atoms: _13  and  _14
REMARK    5  A    between atoms: _13  and  _17
REMARK    6  A    between atoms: _14  and  _15
REMARK    7  A    between atoms: _14  and  _16
REMARK                            x       y       z     vdW  Elec       q    Type
REMARK                         _______ _______ _______ _____ _____    ______ ____
ROOT
ATOM      1  O   UNL     1     -13.920   3.754 -16.133  0.00  0.00    -0.342 OA
ENDROOT
BRANCH   1   3
ATOM      2  N   UNL     1     -14.560   5.898 -16.494  0.00  0.00    -0.216 NA
ATOM      3  C   UNL     1     -14.573   4.853 -15.639  0.00  0.00    +0.248 A 
ATOM      4  C   UNL     1     -15.147   4.923 -14.358  0.00  0.00    +0.092 A 
ATOM      5  C   UNL     1     -15.764   6.100 -13.925  0.00  0.00    +0.035 A 
ATOM      6  C   UNL     1     -15.680   7.187 -14.770  0.00  0.00    -0.005 A 
ATOM      7  C   UNL     1     -16.059   8.613 -14.529  0.00  0.00    +0.039 C 
ATOM      8  C   UNL     1     -16.040   9.181 -15.954  0.00  0.00    +0.011 C 
ATOM      9  C   UNL     1     -15.012   8.356 -16.738  0.00  0.00    +0.056 C 
ATOM     10  C   UNL     1     -15.091   7.038 -16.022  0.00  0.00    +0.050 A 
BRANCH   5  11
ATOM     11  N   UNL     1     -16.201   6.226 -12.607  0.00  0.00    -0.358 N 
ATOM     12  H   UNL     1     -15.710   6.921 -12.052  0.00  0.00    +0.142 HD
ATOM     13  H   UNL     1     -16.309   5.348 -12.109  0.00  0.00    +0.142 HD
ENDBRANCH   5  11
ENDBRANCH   1   3
BRANCH   1  14
ATOM     14  S   UNL     1     -13.443   3.681 -17.553  0.00  0.00    -0.013 S 
BRANCH  14  15
ATOM     15  C   UNL     1     -12.212   2.246 -17.041  0.00  0.00    +0.098 A 
ATOM     16  C   UNL     1     -11.334   2.418 -15.959  0.00  0.00    +0.028 A 
ATOM     17  C   UNL     1     -10.475   1.378 -15.595  0.00  0.00    +0.005 A 
ATOM     18  C   UNL     1     -10.472   0.170 -16.303  0.00  0.00    -0.050 A 
ATOM     19  C   UNL     1      -9.589  -0.962 -15.867  0.00  0.00    +0.044 C 
ATOM     20  C   UNL     1     -11.358   0.004 -17.375  0.00  0.00    +0.005 A 
ATOM     21  C   UNL     1     -12.222   1.037 -17.753  0.00  0.00    +0.028 A 
ENDBRANCH  14  15
BRANCH  14  22
ATOM     22  O   UNL     1     -14.696   2.931 -17.842  0.00  0.00    -0.263 OA
ATOM     23  H   UNL     1     -15.045   3.205 -18.704  0.00  0.00    +0.244 HD
ENDBRANCH  14  22
BRANCH  14  24
ATOM     24  O   UNL     1     -12.965   3.608 -18.973  0.00  0.00    -0.263 OA
ATOM     25  H   UNL     1     -12.329   4.321 -19.138  0.00  0.00    +0.244 HD
ENDBRANCH  14  24
ENDBRANCH   1  14
TORSDOF 6
ENDMDL
MODEL 7
REMARK VINA RESULT:      -6.8      5.832      8.851
REMARK  Name = min_compound988.pdb
REMARK  7 active torsions:
REMARK  status: ('A' for Active; 'I' for Inactive)
REMARK    1  A    between atoms: _2  and  _21
REMARK    2  A    between atoms: _8  and  _14
REMARK    3  A    between atoms: _10  and  _12
REMARK    4  A    between atoms: _13  and  _14
REMARK    5  A    between atoms: _13  and  _17
REMARK    6  A    between atoms: _14  and  _15
REMARK    7  A    between atoms: _14  and  _16
REMARK                            x       y       z     vdW  Elec       q    Type
REMARK                         _______ _______ _______ _____ _____    ______ ____
ROOT
ATOM      1  O   UNL     1     -17.501   1.613  -8.499  0.00  0.00    -0.342 OA
ENDROOT
BRANCH   1   3
ATOM      2  N   UNL     1     -16.526   2.063  -6.503  0.00  0.00    -0.216 NA
ATOM      3  C   UNL     1     -16.746   1.135  -7.460  0.00  0.00    +0.248 A 
ATOM      4  C   UNL     1     -16.200  -0.158  -7.407  0.00  0.00    +0.092 A 
ATOM      5  C   UNL     1     -15.412  -0.547  -6.320  0.00  0.00    +0.035 A 
ATOM      6  C   UNL     1     -15.126   0.427  -5.386  0.00  0.00    -0.005 A 
ATOM      7  C   UNL     1     -14.175   0.391  -4.232  0.00  0.00    +0.039 C 
ATOM      8  C   UNL     1     -14.612   1.628  -3.436  0.00  0.00    +0.011 C 
ATOM      9  C   UNL     1     -15.185   2.621  -4.454  0.00  0.00    +0.056 C 
ATOM     10  C   UNL     1     -15.702   1.686  -5.512  0.00  0.00    +0.050 A 
BRANCH   5  11
ATOM     11  N   UNL     1     -14.746  -1.773  -6.332  0.00  0.00    -0.358 N 
ATOM     12  H   UNL     1     -14.977  -2.384  -7.110  0.00  0.00    +0.142 HD
ATOM     13  H   UNL     1     -14.750  -2.267  -5.445  0.00  0.00    +0.142 HD
ENDBRANCH   5  11
ENDBRANCH   1   3
BRANCH   1  14
ATOM     14  S   UNL     1     -18.156   2.962  -8.457  0.00  0.00    -0.013 S 
BRANCH  14  15
ATOM     15  C   UNL     1     -17.153   3.473 -10.060  0.00  0.00    +0.098 A 
ATOM     16  C   UNL     1     -15.996   4.260  -9.951  0.00  0.00    +0.028 A 
ATOM     17  C   UNL     1     -15.282   4.601 -11.103  0.00  0.00    +0.005 A 
ATOM     18  C   UNL     1     -15.713   4.175 -12.365  0.00  0.00    -0.050 A 
ATOM     19  C   UNL     1     -14.906   4.496 -13.589  0.00  0.00    +0.044 C 
ATOM     20  C   UNL     1     -16.863   3.382 -12.463  0.00  0.00    +0.005 A 
ATOM     21  C   UNL     1     -17.590   3.035 -11.320  0.00  0.00    +0.028 A 
ENDBRANCH  14  15
BRANCH  14  22
ATOM     22  O   UNL     1     -19.356   2.297  -9.035  0.00  0.00    -0.263 OA
ATOM     23  H   UNL     1     -20.131   2.867  -8.911  0.00  0.00    +0.244 HD
ENDBRANCH  14  22
BRANCH  14  24
ATOM     24  O   UNL     1     -18.810   4.310  -8.414  0.00  0.00    -0.263 OA
ATOM     25  H   UNL     1     -18.448   4.823  -7.675  0.00  0.00    +0.244 HD
ENDBRANCH  14  24
ENDBRANCH   1  14
TORSDOF 6
ENDMDL
MODEL 8
REMARK VINA RESULT:      -6.8      2.350      6.412
REMARK  Name = min_compound988.pdb
REMARK  7 active torsions:
REMARK  status: ('A' for Active; 'I' for Inactive)
REMARK    1  A    between atoms: _2  and  _21
REMARK    2  A    between atoms: _8  and  _14
REMARK    3  A    between atoms: _10  and  _12
REMARK    4  A    between atoms: _13  and  _14
REMARK    5  A    between atoms: _13  and  _17
REMARK    6  A    between atoms: _14  and  _15
REMARK    7  A    between atoms: _14  and  _16
REMARK                            x       y       z     vdW  Elec       q    Type
REMARK                         _______ _______ _______ _____ _____    ______ ____
ROOT
ATOM      1  O   UNL     1     -14.118   3.674 -16.931  0.00  0.00    -0.342 OA
ENDROOT
BRANCH   1   3
ATOM      2  N   UNL     1     -15.342   3.152 -15.097  0.00  0.00    -0.216 NA
ATOM      3  C   UNL     1     -14.790   4.141 -15.832  0.00  0.00    +0.248 A 
ATOM      4  C   UNL     1     -14.951   5.502 -15.521  0.00  0.00    +0.092 A 
ATOM      5  C   UNL     1     -15.684   5.886 -14.395  0.00  0.00    +0.035 A 
ATOM      6  C   UNL     1     -16.309   4.878 -13.692  0.00  0.00    -0.005 A 
ATOM      7  C   UNL     1     -17.303   4.966 -12.579  0.00  0.00    +0.039 C 
ATOM      8  C   UNL     1     -17.301   3.526 -12.050  0.00  0.00    +0.011 C 
ATOM      9  C   UNL     1     -16.950   2.625 -13.241  0.00  0.00    +0.056 C 
ATOM     10  C   UNL     1     -16.104   3.553 -14.067  0.00  0.00    +0.050 A 
BRANCH   5  11
ATOM     11  N   UNL     1     -15.972   7.232 -14.164  0.00  0.00    -0.358 N 
ATOM     12  H   UNL     1     -16.956   7.480 -14.224  0.00  0.00    +0.142 HD
ATOM     13  H   UNL     1     -15.383   7.885 -14.668  0.00  0.00    +0.142 HD
ENDBRANCH   5  11
ENDBRANCH   1   3
BRANCH   1  14
ATOM     14  S   UNL     1     -12.838   4.295 -17.407  0.00  0.00    -0.013 S 
BRANCH  14  15
ATOM     15  C   UNL     1     -11.891   2.644 -16.941  0.00  0.00    +0.098 A 
ATOM     16  C   UNL     1     -11.027   2.611 -15.835  0.00  0.00    +0.028 A 
ATOM     17  C   UNL     1     -10.373   1.421 -15.504  0.00  0.00    +0.005 A 
ATOM     18  C   UNL     1     -10.563   0.264 -16.269  0.00  0.00    -0.050 A 
ATOM     19  C   UNL     1      -9.904  -1.024 -15.871  0.00  0.00    +0.044 C 
ATOM     20  C   UNL     1     -11.435   0.304 -17.364  0.00  0.00    +0.005 A 
ATOM     21  C   UNL     1     -12.093   1.488 -17.709  0.00  0.00    +0.028 A 
ENDBRANCH  14  15
BRANCH  14  22
ATOM     22  O   UNL     1     -13.315   4.004 -18.787  0.00  0.00    -0.263 OA
ATOM     23  H   UNL     1     -12.760   4.476 -19.427  0.00  0.00    +0.244 HD
ENDBRANCH  14  22
BRANCH  14  24
ATOM     24  O   UNL     1     -11.558   4.915 -17.883  0.00  0.00    -0.263 OA
ATOM     25  H   UNL     1     -11.022   5.180 -17.119  0.00  0.00    +0.244 HD
ENDBRANCH  14  24
ENDBRANCH   1  14
TORSDOF 6
ENDMDL
MODEL 9
REMARK VINA RESULT:      -6.7      5.164      8.047
REMARK  Name = min_compound988.pdb
REMARK  7 active torsions:
REMARK  status: ('A' for Active; 'I' for Inactive)
REMARK    1  A    between atoms: _2  and  _21
REMARK    2  A    between atoms: _8  and  _14
REMARK    3  A    between atoms: _10  and  _12
REMARK    4  A    between atoms: _13  and  _14
REMARK    5  A    between atoms: _13  and  _17
REMARK    6  A    between atoms: _14  and  _15
REMARK    7  A    between atoms: _14  and  _16
REMARK                            x       y       z     vdW  Elec       q    Type
REMARK                         _______ _______ _______ _____ _____    ______ ____
ROOT
ATOM      1  O   UNL     1     -17.620   3.376  -9.331  0.00  0.00    -0.342 OA
ENDROOT
BRANCH   1   3
ATOM      2  N   UNL     1     -15.941   2.333  -8.222  0.00  0.00    -0.216 NA
ATOM      3  C   UNL     1     -17.269   2.373  -8.466  0.00  0.00    +0.248 A 
ATOM      4  C   UNL     1     -18.171   1.439  -7.929  0.00  0.00    +0.092 A 
ATOM      5  C   UNL     1     -17.716   0.427  -7.080  0.00  0.00    +0.035 A 
ATOM      6  C   UNL     1     -16.351   0.342  -6.896  0.00  0.00    -0.005 A 
ATOM      7  C   UNL     1     -15.545  -0.719  -6.219  0.00  0.00    +0.039 C 
ATOM      8  C   UNL     1     -14.186  -0.022  -6.070  0.00  0.00    +0.011 C 
ATOM      9  C   UNL     1     -14.076   0.974  -7.231  0.00  0.00    +0.056 C 
ATOM     10  C   UNL     1     -15.523   1.304  -7.467  0.00  0.00    +0.050 A 
BRANCH   5  11
ATOM     11  N   UNL     1     -18.578  -0.589  -6.664  0.00  0.00    -0.358 N 
ATOM     12  H   UNL     1     -18.407  -1.500  -7.082  0.00  0.00    +0.142 HD
ATOM     13  H   UNL     1     -19.562  -0.343  -6.677  0.00  0.00    +0.142 HD
ENDBRANCH   5  11
ENDBRANCH   1   3
BRANCH   1  14
ATOM     14  S   UNL     1     -16.767   4.594  -9.528  0.00  0.00    -0.013 S 
BRANCH  14  15
ATOM     15  C   UNL     1     -16.458   4.049 -11.384  0.00  0.00    +0.098 A 
ATOM     16  C   UNL     1     -15.361   4.557 -12.098  0.00  0.00    +0.028 A 
ATOM     17  C   UNL     1     -15.144   4.144 -13.416  0.00  0.00    +0.005 A 
ATOM     18  C   UNL     1     -16.013   3.237 -14.034  0.00  0.00    -0.050 A 
ATOM     19  C   UNL     1     -15.737   2.754 -15.428  0.00  0.00    +0.044 C 
ATOM     20  C   UNL     1     -17.099   2.728 -13.310  0.00  0.00    +0.005 A 
ATOM     21  C   UNL     1     -17.331   3.134 -11.993  0.00  0.00    +0.028 A 
ENDBRANCH  14  15
BRANCH  14  22
ATOM     22  O   UNL     1     -18.041   5.359  -9.634  0.00  0.00    -0.263 OA
ATOM     23  H   UNL     1     -17.886   6.178 -10.128  0.00  0.00    +0.244 HD
ENDBRANCH  14  22
BRANCH  14  24
ATOM     24  O   UNL     1     -15.915   5.813  -9.726  0.00  0.00    -0.263 OA
ATOM     25  H   UNL     1     -15.008   5.624  -9.437  0.00  0.00    +0.244 HD
ENDBRANCH  14  24
ENDBRANCH   1  14
TORSDOF 6
ENDMDL
