MODEL 1
REMARK VINA RESULT:      -6.7      0.000      0.000
REMARK  Name = min_compound959.pdb
REMARK  6 active torsions:
REMARK  status: ('A' for Active; 'I' for Inactive)
REMARK    1  A    between atoms: _1  and  _12
REMARK    2  A    between atoms: _6  and  _18
REMARK    3  A    between atoms: _9  and  _11
REMARK    4  A    between atoms: _9  and  _18
REMARK    5  A    between atoms: _11  and  _19
REMARK    6  A    between atoms: _19  and  _20
REMARK                            x       y       z     vdW  Elec       q    Type
REMARK                         _______ _______ _______ _____ _____    ______ ____
ROOT
ATOM      1  C   UNL     1     -12.363   1.786 -18.199  0.00  0.00    +0.338 C 
ATOM      2  N   UNL     1     -12.734   1.553 -19.485  0.00  0.00    -0.132 N 
ATOM      3  H   UNL     1     -12.538   0.779 -20.061  0.00  0.00    +0.323 HD
ATOM      4  N   UNL     1     -13.496   2.753 -19.782  0.00  0.00    -0.119 N 
ATOM      5  C   UNL     1     -14.640   2.872 -20.556  0.00  0.00    +0.069 C 
ATOM      6  C   UNL     1     -15.510   3.773 -20.039  0.00  0.00    +0.070 C 
ATOM      7  S   UNL     1     -14.990   4.480 -18.495  0.00  0.00    -0.045 S 
ATOM      8  C   UNL     1     -13.578   3.447 -18.603  0.00  0.00    +0.378 C 
ATOM      9  N   UNL     1     -12.827   2.871 -17.615  0.00  0.00    -0.031 NA
ENDROOT
BRANCH   1  10
ATOM     10  C   UNL     1     -11.483   0.814 -17.500  0.00  0.00    +0.067 A 
ATOM     11  C   UNL     1     -10.095   0.928 -17.657  0.00  0.00    +0.016 A 
ATOM     12  C   UNL     1      -9.232   0.038 -17.013  0.00  0.00    +0.001 A 
ATOM     13  C   UNL     1      -9.751  -0.972 -16.204  0.00  0.00    +0.000 A 
ATOM     14  C   UNL     1     -11.131  -1.094 -16.041  0.00  0.00    +0.001 A 
ATOM     15  C   UNL     1     -11.995  -0.203 -16.687  0.00  0.00    +0.016 A 
ENDBRANCH   1  10
BRANCH   5  16
ATOM     16  C   UNL     1     -14.782   2.055 -21.803  0.00  0.00    +0.175 C 
BRANCH  16  17
ATOM     17  C   UNL     1     -13.605   2.183 -22.745  0.00  0.00    +0.313 C 
ATOM     18  O   UNL     1     -12.649   1.416 -22.781  0.00  0.00    -0.250 OA
BRANCH  17  19
ATOM     19  O   UNL     1     -13.764   3.256 -23.577  0.00  0.00    -0.465 OA
BRANCH  19  20
ATOM     20  C   UNL     1     -12.625   4.113 -23.719  0.00  0.00    +0.229 C 
ATOM     21  C   UNL     1     -12.610   5.157 -22.621  0.00  0.00    +0.048 C 
ENDBRANCH  19  20
ENDBRANCH  17  19
ENDBRANCH  16  17
ENDBRANCH   5  16
TORSDOF 5
ENDMDL
MODEL 2
REMARK VINA RESULT:      -6.7      3.243      3.710
REMARK  Name = min_compound959.pdb
REMARK  6 active torsions:
REMARK  status: ('A' for Active; 'I' for Inactive)
REMARK    1  A    between atoms: _1  and  _12
REMARK    2  A    between atoms: _6  and  _18
REMARK    3  A    between atoms: _9  and  _11
REMARK    4  A    between atoms: _9  and  _18
REMARK    5  A    between atoms: _11  and  _19
REMARK    6  A    between atoms: _19  and  _20
REMARK                            x       y       z     vdW  Elec       q    Type
REMARK                         _______ _______ _______ _____ _____    ______ ____
ROOT
ATOM      1  C   UNL     1     -12.086   2.937 -16.770  0.00  0.00    +0.338 C 
ATOM      2  N   UNL     1     -11.527   4.078 -17.251  0.00  0.00    -0.132 N 
ATOM      3  H   UNL     1     -10.669   4.206 -17.718  0.00  0.00    +0.323 HD
ATOM      4  N   UNL     1     -12.534   5.061 -16.892  0.00  0.00    -0.119 N 
ATOM      5  C   UNL     1     -12.938   6.176 -17.609  0.00  0.00    +0.069 C 
ATOM      6  C   UNL     1     -14.272   6.389 -17.506  0.00  0.00    +0.070 C 
ATOM      7  S   UNL     1     -15.133   5.155 -16.563  0.00  0.00    -0.045 S 
ATOM      8  C   UNL     1     -13.587   4.348 -16.381  0.00  0.00    +0.378 C 
ATOM      9  N   UNL     1     -13.294   3.018 -16.255  0.00  0.00    -0.031 NA
ENDROOT
BRANCH   1  10
ATOM     10  C   UNL     1     -11.338   1.657 -16.864  0.00  0.00    +0.067 A 
ATOM     11  C   UNL     1     -11.983   0.471 -16.491  0.00  0.00    +0.016 A 
ATOM     12  C   UNL     1     -11.318  -0.755 -16.569  0.00  0.00    +0.001 A 
ATOM     13  C   UNL     1     -10.001  -0.804 -17.023  0.00  0.00    +0.000 A 
ATOM     14  C   UNL     1      -9.349   0.370 -17.398  0.00  0.00    +0.001 A 
ATOM     15  C   UNL     1     -10.015   1.598 -17.319  0.00  0.00    +0.016 A 
ENDBRANCH   1  10
BRANCH   5  16
ATOM     16  C   UNL     1     -11.926   6.980 -18.365  0.00  0.00    +0.175 C 
BRANCH  16  17
ATOM     17  C   UNL     1     -11.867   6.644 -19.839  0.00  0.00    +0.313 C 
ATOM     18  O   UNL     1     -12.452   5.705 -20.368  0.00  0.00    -0.250 OA
BRANCH  17  19
ATOM     19  O   UNL     1     -11.094   7.548 -20.512  0.00  0.00    -0.465 OA
BRANCH  19  20
ATOM     20  C   UNL     1     -11.081   7.422 -21.939  0.00  0.00    +0.229 C 
ATOM     21  C   UNL     1     -10.480   8.661 -22.573  0.00  0.00    +0.048 C 
ENDBRANCH  19  20
ENDBRANCH  17  19
ENDBRANCH  16  17
ENDBRANCH   5  16
TORSDOF 5
ENDMDL
MODEL 3
REMARK VINA RESULT:      -6.7      4.418      6.374
REMARK  Name = min_compound959.pdb
REMARK  6 active torsions:
REMARK  status: ('A' for Active; 'I' for Inactive)
REMARK    1  A    between atoms: _1  and  _12
REMARK    2  A    between atoms: _6  and  _18
REMARK    3  A    between atoms: _9  and  _11
REMARK    4  A    between atoms: _9  and  _18
REMARK    5  A    between atoms: _11  and  _19
REMARK    6  A    between atoms: _19  and  _20
REMARK                            x       y       z     vdW  Elec       q    Type
REMARK                         _______ _______ _______ _____ _____    ______ ____
ROOT
ATOM      1  C   UNL     1     -14.596   4.182 -14.978  0.00  0.00    +0.338 C 
ATOM      2  N   UNL     1     -13.413   3.537 -15.151  0.00  0.00    -0.132 N 
ATOM      3  H   UNL     1     -12.976   2.869 -14.575  0.00  0.00    +0.323 HD
ATOM      4  N   UNL     1     -12.967   4.097 -16.414  0.00  0.00    -0.119 N 
ATOM      5  C   UNL     1     -12.288   3.461 -17.442  0.00  0.00    +0.069 C 
ATOM      6  C   UNL     1     -12.704   3.882 -18.660  0.00  0.00    +0.070 C 
ATOM      7  S   UNL     1     -14.038   5.053 -18.608  0.00  0.00    -0.045 S 
ATOM      8  C   UNL     1     -13.999   4.878 -16.863  0.00  0.00    +0.378 C 
ATOM      9  N   UNL     1     -15.007   4.977 -15.943  0.00  0.00    -0.031 NA
ENDROOT
BRANCH   1  10
ATOM     10  C   UNL     1     -15.382   3.955 -13.738  0.00  0.00    +0.067 A 
ATOM     11  C   UNL     1     -14.998   4.618 -12.565  0.00  0.00    +0.016 A 
ATOM     12  C   UNL     1     -15.714   4.436 -11.379  0.00  0.00    +0.001 A 
ATOM     13  C   UNL     1     -16.822   3.591 -11.358  0.00  0.00    +0.000 A 
ATOM     14  C   UNL     1     -17.214   2.926 -12.520  0.00  0.00    +0.001 A 
ATOM     15  C   UNL     1     -16.496   3.107 -13.707  0.00  0.00    +0.016 A 
ENDBRANCH   1  10
BRANCH   5  16
ATOM     16  C   UNL     1     -11.232   2.450 -17.120  0.00  0.00    +0.175 C 
BRANCH  16  17
ATOM     17  C   UNL     1     -11.748   1.028 -17.089  0.00  0.00    +0.313 C 
ATOM     18  O   UNL     1     -12.755   0.660 -16.494  0.00  0.00    -0.250 OA
BRANCH  17  19
ATOM     19  O   UNL     1     -10.954   0.207 -17.840  0.00  0.00    -0.465 OA
BRANCH  19  20
ATOM     20  C   UNL     1      -9.625  -0.004 -17.348  0.00  0.00    +0.229 C 
ATOM     21  C   UNL     1      -9.664  -0.728 -16.017  0.00  0.00    +0.048 C 
ENDBRANCH  19  20
ENDBRANCH  17  19
ENDBRANCH  16  17
ENDBRANCH   5  16
TORSDOF 5
ENDMDL
MODEL 4
REMARK VINA RESULT:      -6.6      2.885      3.966
REMARK  Name = min_compound959.pdb
REMARK  6 active torsions:
REMARK  status: ('A' for Active; 'I' for Inactive)
REMARK    1  A    between atoms: _1  and  _12
REMARK    2  A    between atoms: _6  and  _18
REMARK    3  A    between atoms: _9  and  _11
REMARK    4  A    between atoms: _9  and  _18
REMARK    5  A    between atoms: _11  and  _19
REMARK    6  A    between atoms: _19  and  _20
REMARK                            x       y       z     vdW  Elec       q    Type
REMARK                         _______ _______ _______ _____ _____    ______ ____
ROOT
ATOM      1  C   UNL     1     -12.556   1.709 -18.350  0.00  0.00    +0.338 C 
ATOM      2  N   UNL     1     -13.168   2.747 -17.722  0.00  0.00    -0.132 N 
ATOM      3  H   UNL     1     -13.077   3.056 -16.791  0.00  0.00    +0.323 HD
ATOM      4  N   UNL     1     -13.992   3.280 -18.792  0.00  0.00    -0.119 N 
ATOM      5  C   UNL     1     -14.296   4.605 -19.062  0.00  0.00    +0.069 C 
ATOM      6  C   UNL     1     -14.335   4.855 -20.393  0.00  0.00    +0.070 C 
ATOM      7  S   UNL     1     -13.915   3.459 -21.406  0.00  0.00    -0.045 S 
ATOM      8  C   UNL     1     -13.650   2.574 -19.915  0.00  0.00    +0.378 C 
ATOM      9  N   UNL     1     -12.785   1.552 -19.636  0.00  0.00    -0.031 NA
ENDROOT
BRANCH   1  10
ATOM     10  C   UNL     1     -11.648   0.819 -17.582  0.00  0.00    +0.067 A 
ATOM     11  C   UNL     1     -10.264   1.000 -17.706  0.00  0.00    +0.016 A 
ATOM     12  C   UNL     1      -9.375   0.187 -16.997  0.00  0.00    +0.001 A 
ATOM     13  C   UNL     1      -9.864  -0.812 -16.157  0.00  0.00    +0.000 A 
ATOM     14  C   UNL     1     -11.240  -1.000 -16.026  0.00  0.00    +0.001 A 
ATOM     15  C   UNL     1     -12.131  -0.188 -16.737  0.00  0.00    +0.016 A 
ENDBRANCH   1  10
BRANCH   5  16
ATOM     16  C   UNL     1     -14.540   5.557 -17.932  0.00  0.00    +0.175 C 
BRANCH  16  17
ATOM     17  C   UNL     1     -13.296   6.291 -17.481  0.00  0.00    +0.313 C 
ATOM     18  O   UNL     1     -13.056   7.471 -17.711  0.00  0.00    -0.250 OA
BRANCH  17  19
ATOM     19  O   UNL     1     -12.484   5.467 -16.753  0.00  0.00    -0.465 OA
BRANCH  19  20
ATOM     20  C   UNL     1     -11.102   5.454 -17.132  0.00  0.00    +0.229 C 
ATOM     21  C   UNL     1     -10.327   4.477 -16.270  0.00  0.00    +0.048 C 
ENDBRANCH  19  20
ENDBRANCH  17  19
ENDBRANCH  16  17
ENDBRANCH   5  16
TORSDOF 5
ENDMDL
MODEL 5
REMARK VINA RESULT:      -6.6      4.272      5.611
REMARK  Name = min_compound959.pdb
REMARK  6 active torsions:
REMARK  status: ('A' for Active; 'I' for Inactive)
REMARK    1  A    between atoms: _1  and  _12
REMARK    2  A    between atoms: _6  and  _18
REMARK    3  A    between atoms: _9  and  _11
REMARK    4  A    between atoms: _9  and  _18
REMARK    5  A    between atoms: _11  and  _19
REMARK    6  A    between atoms: _19  and  _20
REMARK                            x       y       z     vdW  Elec       q    Type
REMARK                         _______ _______ _______ _____ _____    ______ ____
ROOT
ATOM      1  C   UNL     1     -12.039   3.063 -17.199  0.00  0.00    +0.338 C 
ATOM      2  N   UNL     1     -13.331   3.224 -16.810  0.00  0.00    -0.132 N 
ATOM      3  H   UNL     1     -13.904   2.621 -16.283  0.00  0.00    +0.323 HD
ATOM      4  N   UNL     1     -13.639   4.523 -17.381  0.00  0.00    -0.119 N 
ATOM      5  C   UNL     1     -14.430   5.528 -16.847  0.00  0.00    +0.069 C 
ATOM      6  C   UNL     1     -13.926   6.759 -17.102  0.00  0.00    +0.070 C 
ATOM      7  S   UNL     1     -12.374   6.744 -17.965  0.00  0.00    -0.045 S 
ATOM      8  C   UNL     1     -12.461   4.994 -17.899  0.00  0.00    +0.378 C 
ATOM      9  N   UNL     1     -11.462   4.061 -17.833  0.00  0.00    -0.031 NA
ENDROOT
BRANCH   1  10
ATOM     10  C   UNL     1     -11.328   1.798 -16.880  0.00  0.00    +0.067 A 
ATOM     11  C   UNL     1     -11.322   0.769 -17.831  0.00  0.00    +0.016 A 
ATOM     12  C   UNL     1     -10.660  -0.434 -17.572  0.00  0.00    +0.001 A 
ATOM     13  C   UNL     1      -9.996  -0.616 -16.361  0.00  0.00    +0.000 A 
ATOM     14  C   UNL     1      -9.994   0.403 -15.407  0.00  0.00    +0.001 A 
ATOM     15  C   UNL     1     -10.658   1.607 -15.665  0.00  0.00    +0.016 A 
ENDBRANCH   1  10
BRANCH   5  16
ATOM     16  C   UNL     1     -15.680   5.173 -16.102  0.00  0.00    +0.175 C 
BRANCH  16  17
ATOM     17  C   UNL     1     -15.462   4.979 -14.617  0.00  0.00    +0.313 C 
ATOM     18  O   UNL     1     -15.579   5.859 -13.771  0.00  0.00    -0.250 OA
BRANCH  17  19
ATOM     19  O   UNL     1     -15.147   3.679 -14.338  0.00  0.00    -0.465 OA
BRANCH  19  20
ATOM     20  C   UNL     1     -16.210   2.731 -14.484  0.00  0.00    +0.229 C 
ATOM     21  C   UNL     1     -17.078   2.714 -13.242  0.00  0.00    +0.048 C 
ENDBRANCH  19  20
ENDBRANCH  17  19
ENDBRANCH  16  17
ENDBRANCH   5  16
TORSDOF 5
ENDMDL
MODEL 6
REMARK VINA RESULT:      -6.5      3.412      4.982
REMARK  Name = min_compound959.pdb
REMARK  6 active torsions:
REMARK  status: ('A' for Active; 'I' for Inactive)
REMARK    1  A    between atoms: _1  and  _12
REMARK    2  A    between atoms: _6  and  _18
REMARK    3  A    between atoms: _9  and  _11
REMARK    4  A    between atoms: _9  and  _18
REMARK    5  A    between atoms: _11  and  _19
REMARK    6  A    between atoms: _19  and  _20
REMARK                            x       y       z     vdW  Elec       q    Type
REMARK                         _______ _______ _______ _____ _____    ______ ____
ROOT
ATOM      1  C   UNL     1     -12.527   1.935 -17.904  0.00  0.00    +0.338 C 
ATOM      2  N   UNL     1     -13.012   2.893 -17.072  0.00  0.00    -0.132 N 
ATOM      3  H   UNL     1     -12.763   3.098 -16.141  0.00  0.00    +0.323 HD
ATOM      4  N   UNL     1     -13.996   3.537 -17.924  0.00  0.00    -0.119 N 
ATOM      5  C   UNL     1     -14.322   4.883 -17.992  0.00  0.00    +0.069 C 
ATOM      6  C   UNL     1     -14.579   5.278 -19.263  0.00  0.00    +0.070 C 
ATOM      7  S   UNL     1     -14.352   4.005 -20.479  0.00  0.00    -0.045 S 
ATOM      8  C   UNL     1     -13.855   2.962 -19.160  0.00  0.00    +0.378 C 
ATOM      9  N   UNL     1     -12.969   1.920 -19.144  0.00  0.00    -0.031 NA
ENDROOT
BRANCH   1  10
ATOM     10  C   UNL     1     -11.516   0.970 -17.401  0.00  0.00    +0.067 A 
ATOM     11  C   UNL     1     -11.950  -0.135 -16.657  0.00  0.00    +0.016 A 
ATOM     12  C   UNL     1     -11.033  -1.070 -16.171  0.00  0.00    +0.001 A 
ATOM     13  C   UNL     1      -9.672  -0.908 -16.428  0.00  0.00    +0.000 A 
ATOM     14  C   UNL     1      -9.229   0.188 -17.168  0.00  0.00    +0.001 A 
ATOM     15  C   UNL     1     -10.147   1.125 -17.654  0.00  0.00    +0.016 A 
ENDBRANCH   1  10
BRANCH   5  16
ATOM     16  C   UNL     1     -14.362   5.702 -16.740  0.00  0.00    +0.175 C 
BRANCH  16  17
ATOM     17  C   UNL     1     -15.413   5.243 -15.752  0.00  0.00    +0.313 C 
ATOM     18  O   UNL     1     -16.580   5.618 -15.744  0.00  0.00    -0.250 OA
BRANCH  17  19
ATOM     19  O   UNL     1     -14.893   4.325 -14.883  0.00  0.00    -0.465 OA
BRANCH  19  20
ATOM     20  C   UNL     1     -15.834   3.428 -14.281  0.00  0.00    +0.229 C 
ATOM     21  C   UNL     1     -15.957   2.161 -15.104  0.00  0.00    +0.048 C 
ENDBRANCH  19  20
ENDBRANCH  17  19
ENDBRANCH  16  17
ENDBRANCH   5  16
TORSDOF 5
ENDMDL
MODEL 7
REMARK VINA RESULT:      -6.5      3.301      4.354
REMARK  Name = min_compound959.pdb
REMARK  6 active torsions:
REMARK  status: ('A' for Active; 'I' for Inactive)
REMARK    1  A    between atoms: _1  and  _12
REMARK    2  A    between atoms: _6  and  _18
REMARK    3  A    between atoms: _9  and  _11
REMARK    4  A    between atoms: _9  and  _18
REMARK    5  A    between atoms: _11  and  _19
REMARK    6  A    between atoms: _19  and  _20
REMARK                            x       y       z     vdW  Elec       q    Type
REMARK                         _______ _______ _______ _____ _____    ______ ____
ROOT
ATOM      1  C   UNL     1     -12.453   1.922 -18.114  0.00  0.00    +0.338 C 
ATOM      2  N   UNL     1     -12.850   3.014 -17.411  0.00  0.00    -0.132 N 
ATOM      3  H   UNL     1     -12.584   3.307 -16.509  0.00  0.00    +0.323 HD
ATOM      4  N   UNL     1     -13.771   3.634 -18.345  0.00  0.00    -0.119 N 
ATOM      5  C   UNL     1     -13.976   4.985 -18.579  0.00  0.00    +0.069 C 
ATOM      6  C   UNL     1     -14.196   5.244 -19.891  0.00  0.00    +0.070 C 
ATOM      7  S   UNL     1     -14.084   3.817 -20.942  0.00  0.00    -0.045 S 
ATOM      8  C   UNL     1     -13.683   2.902 -19.500  0.00  0.00    +0.378 C 
ATOM      9  N   UNL     1     -12.894   1.795 -19.348  0.00  0.00    -0.031 NA
ENDROOT
BRANCH   1  10
ATOM     10  C   UNL     1     -11.532   0.938 -17.488  0.00  0.00    +0.067 A 
ATOM     11  C   UNL     1     -10.152   1.105 -17.656  0.00  0.00    +0.016 A 
ATOM     12  C   UNL     1      -9.251   0.206 -17.079  0.00  0.00    +0.001 A 
ATOM     13  C   UNL     1      -9.726  -0.866 -16.325  0.00  0.00    +0.000 A 
ATOM     14  C   UNL     1     -11.098  -1.041 -16.150  0.00  0.00    +0.001 A 
ATOM     15  C   UNL     1     -12.000  -0.142 -16.729  0.00  0.00    +0.016 A 
ENDBRANCH   1  10
BRANCH   5  16
ATOM     16  C   UNL     1     -13.942   5.951 -17.436  0.00  0.00    +0.175 C 
BRANCH  16  17
ATOM     17  C   UNL     1     -13.372   7.303 -17.804  0.00  0.00    +0.313 C 
ATOM     18  O   UNL     1     -12.219   7.501 -18.171  0.00  0.00    -0.250 OA
BRANCH  17  19
ATOM     19  O   UNL     1     -14.327   8.275 -17.704  0.00  0.00    -0.465 OA
BRANCH  19  20
ATOM     20  C   UNL     1     -15.443   7.975 -16.857  0.00  0.00    +0.229 C 
ATOM     21  C   UNL     1     -15.367   8.783 -15.577  0.00  0.00    +0.048 C 
ENDBRANCH  19  20
ENDBRANCH  17  19
ENDBRANCH  16  17
ENDBRANCH   5  16
TORSDOF 5
ENDMDL
MODEL 8
REMARK VINA RESULT:      -6.5     11.064     13.394
REMARK  Name = min_compound959.pdb
REMARK  6 active torsions:
REMARK  status: ('A' for Active; 'I' for Inactive)
REMARK    1  A    between atoms: _1  and  _12
REMARK    2  A    between atoms: _6  and  _18
REMARK    3  A    between atoms: _9  and  _11
REMARK    4  A    between atoms: _9  and  _18
REMARK    5  A    between atoms: _11  and  _19
REMARK    6  A    between atoms: _19  and  _20
REMARK                            x       y       z     vdW  Elec       q    Type
REMARK                         _______ _______ _______ _____ _____    ______ ____
ROOT
ATOM      1  C   UNL     1     -16.786   3.439  -9.263  0.00  0.00    +0.338 C 
ATOM      2  N   UNL     1     -16.491   2.252  -8.672  0.00  0.00    -0.132 N 
ATOM      3  H   UNL     1     -16.011   1.474  -9.039  0.00  0.00    +0.323 HD
ATOM      4  N   UNL     1     -17.071   2.438  -7.355  0.00  0.00    -0.119 N 
ATOM      5  C   UNL     1     -16.588   1.994  -6.134  0.00  0.00    +0.069 C 
ATOM      6  C   UNL     1     -16.796   2.898  -5.147  0.00  0.00    +0.070 C 
ATOM      7  S   UNL     1     -17.543   4.412  -5.695  0.00  0.00    -0.045 S 
ATOM      8  C   UNL     1     -17.499   3.740  -7.314  0.00  0.00    +0.378 C 
ATOM      9  N   UNL     1     -17.368   4.361  -8.526  0.00  0.00    -0.031 NA
ENDROOT
BRANCH   1  10
ATOM     10  C   UNL     1     -16.426   3.661 -10.687  0.00  0.00    +0.067 A 
ATOM     11  C   UNL     1     -15.360   4.521 -10.987  0.00  0.00    +0.016 A 
ATOM     12  C   UNL     1     -14.986   4.753 -12.313  0.00  0.00    +0.001 A 
ATOM     13  C   UNL     1     -15.673   4.124 -13.350  0.00  0.00    +0.000 A 
ATOM     14  C   UNL     1     -16.734   3.266 -13.063  0.00  0.00    +0.001 A 
ATOM     15  C   UNL     1     -17.111   3.035 -11.735  0.00  0.00    +0.016 A 
ENDBRANCH   1  10
BRANCH   5  16
ATOM     16  C   UNL     1     -15.939   0.648  -6.038  0.00  0.00    +0.175 C 
BRANCH  16  17
ATOM     17  C   UNL     1     -14.443   0.682  -6.266  0.00  0.00    +0.313 C 
ATOM     18  O   UNL     1     -13.891   1.228  -7.214  0.00  0.00    -0.250 OA
BRANCH  17  19
ATOM     19  O   UNL     1     -13.784   0.045  -5.253  0.00  0.00    -0.465 OA
BRANCH  19  20
ATOM     20  C   UNL     1     -14.153   0.430  -3.923  0.00  0.00    +0.229 C 
ATOM     21  C   UNL     1     -13.477   1.733  -3.544  0.00  0.00    +0.048 C 
ENDBRANCH  19  20
ENDBRANCH  17  19
ENDBRANCH  16  17
ENDBRANCH   5  16
TORSDOF 5
ENDMDL
MODEL 9
REMARK VINA RESULT:      -6.4      2.697      3.719
REMARK  Name = min_compound959.pdb
REMARK  6 active torsions:
REMARK  status: ('A' for Active; 'I' for Inactive)
REMARK    1  A    between atoms: _1  and  _12
REMARK    2  A    between atoms: _6  and  _18
REMARK    3  A    between atoms: _9  and  _11
REMARK    4  A    between atoms: _9  and  _18
REMARK    5  A    between atoms: _11  and  _19
REMARK    6  A    between atoms: _19  and  _20
REMARK                            x       y       z     vdW  Elec       q    Type
REMARK                         _______ _______ _______ _____ _____    ______ ____
ROOT
ATOM      1  C   UNL     1     -12.631   3.087 -16.252  0.00  0.00    +0.338 C 
ATOM      2  N   UNL     1     -12.034   4.178 -16.798  0.00  0.00    -0.132 N 
ATOM      3  H   UNL     1     -11.148   4.259 -17.220  0.00  0.00    +0.323 HD
ATOM      4  N   UNL     1     -13.052   5.192 -16.593  0.00  0.00    -0.119 N 
ATOM      5  C   UNL     1     -13.401   6.239 -17.432  0.00  0.00    +0.069 C 
ATOM      6  C   UNL     1     -14.737   6.464 -17.432  0.00  0.00    +0.070 C 
ATOM      7  S   UNL     1     -15.666   5.324 -16.437  0.00  0.00    -0.045 S 
ATOM      8  C   UNL     1     -14.141   4.532 -16.086  0.00  0.00    +0.378 C 
ATOM      9  N   UNL     1     -13.869   3.218 -15.822  0.00  0.00    -0.031 NA
ENDROOT
BRANCH   1  10
ATOM     10  C   UNL     1     -11.891   1.801 -16.182  0.00  0.00    +0.067 A 
ATOM     11  C   UNL     1     -12.497   0.645 -16.691  0.00  0.00    +0.016 A 
ATOM     12  C   UNL     1     -11.833  -0.583 -16.650  0.00  0.00    +0.001 A 
ATOM     13  C   UNL     1     -10.554  -0.664 -16.100  0.00  0.00    +0.000 A 
ATOM     14  C   UNL     1      -9.941   0.480 -15.591  0.00  0.00    +0.001 A 
ATOM     15  C   UNL     1     -10.606   1.710 -15.631  0.00  0.00    +0.016 A 
ENDBRANCH   1  10
BRANCH   5  16
ATOM     16  C   UNL     1     -12.338   6.967 -18.193  0.00  0.00    +0.175 C 
BRANCH  16  17
ATOM     17  C   UNL     1     -12.171   6.479 -19.615  0.00  0.00    +0.313 C 
ATOM     18  O   UNL     1     -11.936   7.197 -20.581  0.00  0.00    -0.250 OA
BRANCH  17  19
ATOM     19  O   UNL     1     -12.289   5.118 -19.678  0.00  0.00    -0.465 OA
BRANCH  19  20
ATOM     20  C   UNL     1     -13.335   4.617 -20.518  0.00  0.00    +0.229 C 
ATOM     21  C   UNL     1     -14.054   3.469 -19.838  0.00  0.00    +0.048 C 
ENDBRANCH  19  20
ENDBRANCH  17  19
ENDBRANCH  16  17
ENDBRANCH   5  16
TORSDOF 5
ENDMDL
