MODEL 1
REMARK VINA RESULT:      -6.4      0.000      0.000
REMARK  Name = min_compound927.pdb
REMARK  8 active torsions:
REMARK  status: ('A' for Active; 'I' for Inactive)
REMARK    1  A    between atoms: _1  and  _16
REMARK    2  A    between atoms: _2  and  _10
REMARK    3  A    between atoms: _9  and  _11
REMARK    4  A    between atoms: _10  and  _13
REMARK    5  A    between atoms: _11  and  _15
REMARK    6  A    between atoms: _12  and  _15
REMARK    7  A    between atoms: _12  and  _19
REMARK    8  A    between atoms: _12  and  _20
REMARK                            x       y       z     vdW  Elec       q    Type
REMARK                         _______ _______ _______ _____ _____    ______ ____
ROOT
ATOM      1  C   UNL     1     -16.446   4.801 -11.828  0.00  0.00    +0.280 A 
ATOM      2  C   UNL     1     -15.397   4.970 -12.745  0.00  0.00    +0.107 A 
ATOM      3  C   UNL     1     -15.229   4.066 -13.795  0.00  0.00    +0.037 A 
ATOM      4  N   UNL     1     -14.215   4.298 -14.736  0.00  0.00    -0.339 N 
ATOM      5  H   UNL     1     -13.407   4.759 -14.325  0.00  0.00    +0.146 HD
ATOM      6  C   UNL     1     -13.851   3.167 -15.604  0.00  0.00    +0.084 C 
ATOM      7  C   UNL     1     -15.126   2.560 -16.199  0.00  0.00    +0.028 C 
ATOM      8  C   UNL     1     -16.029   2.044 -15.085  0.00  0.00    +0.039 C 
ATOM      9  C   UNL     1     -16.171   3.037 -13.959  0.00  0.00    -0.026 A 
ATOM     10  C   UNL     1     -17.224   2.883 -13.037  0.00  0.00    +0.018 A 
ATOM     11  C   UNL     1     -17.385   3.764 -11.958  0.00  0.00    +0.055 A 
ENDROOT
BRANCH   1  12
ATOM     12  N   UNL     1     -16.503   5.731 -10.706  0.00  0.00    +0.080 N 
ATOM     13  O   UNL     1     -15.996   5.367  -9.636  0.00  0.00    +0.041 OA
ATOM     14  O   UNL     1     -17.118   6.795 -10.879  0.00  0.00    -0.576 OA
ENDBRANCH   1  12
BRANCH   6  15
ATOM     15  C   UNL     1     -12.890   3.670 -16.717  0.00  0.00    +0.103 C 
BRANCH  15  16
ATOM     16  N   UNL     1     -11.978   2.624 -17.207  0.00  0.00    -0.312 NA
ATOM     17  H   UNL     1     -11.890   2.686 -18.220  0.00  0.00    +0.122 HD
BRANCH  16  18
ATOM     18  C   UNL     1     -10.629   2.717 -16.618  0.00  0.00    +0.048 C 
ATOM     19  C   UNL     1     -10.438   1.522 -15.671  0.00  0.00    +0.023 C 
ATOM     20  C   UNL     1     -10.377   4.043 -15.965  0.00  0.00    +0.023 C 
ENDBRANCH  16  18
ENDBRANCH  15  16
ENDBRANCH   6  15
BRANCH  11  21
ATOM     21  C   UNL     1     -18.532   3.572 -11.007  0.00  0.00    +0.197 C 
BRANCH  21  22
ATOM     22  O   UNL     1     -18.050   2.949  -9.827  0.00  0.00    -0.390 OA
ATOM     23  H   UNL     1     -17.395   2.284 -10.105  0.00  0.00    +0.210 HD
ENDBRANCH  21  22
ENDBRANCH  11  21
TORSDOF 6
ENDMDL
MODEL 2
REMARK VINA RESULT:      -6.0      3.348      4.682
REMARK  Name = min_compound927.pdb
REMARK  8 active torsions:
REMARK  status: ('A' for Active; 'I' for Inactive)
REMARK    1  A    between atoms: _1  and  _16
REMARK    2  A    between atoms: _2  and  _10
REMARK    3  A    between atoms: _9  and  _11
REMARK    4  A    between atoms: _10  and  _13
REMARK    5  A    between atoms: _11  and  _15
REMARK    6  A    between atoms: _12  and  _15
REMARK    7  A    between atoms: _12  and  _19
REMARK    8  A    between atoms: _12  and  _20
REMARK                            x       y       z     vdW  Elec       q    Type
REMARK                         _______ _______ _______ _____ _____    ______ ____
ROOT
ATOM      1  C   UNL     1     -16.177   7.338 -15.009  0.00  0.00    +0.280 A 
ATOM      2  C   UNL     1     -15.509   6.128 -15.252  0.00  0.00    +0.107 A 
ATOM      3  C   UNL     1     -14.541   6.048 -16.255  0.00  0.00    +0.037 A 
ATOM      4  N   UNL     1     -13.841   4.846 -16.431  0.00  0.00    -0.339 N 
ATOM      5  H   UNL     1     -14.410   4.033 -16.204  0.00  0.00    +0.146 HD
ATOM      6  C   UNL     1     -13.099   4.694 -17.692  0.00  0.00    +0.084 C 
ATOM      7  C   UNL     1     -12.252   5.949 -17.930  0.00  0.00    +0.028 C 
ATOM      8  C   UNL     1     -13.151   7.174 -18.043  0.00  0.00    +0.039 C 
ATOM      9  C   UNL     1     -14.197   7.216 -16.957  0.00  0.00    -0.026 A 
ATOM     10  C   UNL     1     -14.868   8.426 -16.697  0.00  0.00    +0.018 A 
ATOM     11  C   UNL     1     -15.867   8.512 -15.716  0.00  0.00    +0.055 A 
ENDROOT
BRANCH   1  12
ATOM     12  N   UNL     1     -17.238   7.321 -14.009  0.00  0.00    +0.080 N 
ATOM     13  O   UNL     1     -18.354   6.916 -14.367  0.00  0.00    +0.041 OA
ATOM     14  O   UNL     1     -16.972   7.780 -12.888  0.00  0.00    -0.576 OA
ENDBRANCH   1  12
BRANCH   6  15
ATOM     15  C   UNL     1     -12.214   3.419 -17.609  0.00  0.00    +0.103 C 
BRANCH  15  16
ATOM     16  N   UNL     1     -12.417   2.656 -16.367  0.00  0.00    -0.312 NA
ATOM     17  H   UNL     1     -12.763   1.722 -16.586  0.00  0.00    +0.122 HD
BRANCH  16  18
ATOM     18  C   UNL     1     -11.184   2.518 -15.570  0.00  0.00    +0.048 C 
ATOM     19  C   UNL     1     -10.390   3.827 -15.689  0.00  0.00    +0.023 C 
ATOM     20  C   UNL     1     -10.390   1.302 -15.944  0.00  0.00    +0.023 C 
ENDBRANCH  16  18
ENDBRANCH  15  16
ENDBRANCH   6  15
BRANCH  11  21
ATOM     21  C   UNL     1     -16.546   9.827 -15.462  0.00  0.00    +0.197 C 
BRANCH  21  22
ATOM     22  O   UNL     1     -16.018  10.394 -14.274  0.00  0.00    -0.390 OA
ATOM     23  H   UNL     1     -15.629  11.252 -14.518  0.00  0.00    +0.210 HD
ENDBRANCH  21  22
ENDBRANCH  11  21
TORSDOF 6
ENDMDL
MODEL 3
REMARK VINA RESULT:      -5.9      6.356      7.654
REMARK  Name = min_compound927.pdb
REMARK  8 active torsions:
REMARK  status: ('A' for Active; 'I' for Inactive)
REMARK    1  A    between atoms: _1  and  _16
REMARK    2  A    between atoms: _2  and  _10
REMARK    3  A    between atoms: _9  and  _11
REMARK    4  A    between atoms: _10  and  _13
REMARK    5  A    between atoms: _11  and  _15
REMARK    6  A    between atoms: _12  and  _15
REMARK    7  A    between atoms: _12  and  _19
REMARK    8  A    between atoms: _12  and  _20
REMARK                            x       y       z     vdW  Elec       q    Type
REMARK                         _______ _______ _______ _____ _____    ______ ____
ROOT
ATOM      1  C   UNL     1     -13.692   4.446 -20.118  0.00  0.00    +0.280 A 
ATOM      2  C   UNL     1     -13.380   3.410 -19.226  0.00  0.00    +0.107 A 
ATOM      3  C   UNL     1     -12.444   3.614 -18.211  0.00  0.00    +0.037 A 
ATOM      4  N   UNL     1     -12.201   2.584 -17.291  0.00  0.00    -0.339 N 
ATOM      5  H   UNL     1     -12.309   1.662 -17.709  0.00  0.00    +0.146 HD
ATOM      6  C   UNL     1     -10.986   2.705 -16.471  0.00  0.00    +0.084 C 
ATOM      7  C   UNL     1     -10.930   4.110 -15.861  0.00  0.00    +0.028 C 
ATOM      8  C   UNL     1     -10.874   5.158 -16.967  0.00  0.00    +0.039 C 
ATOM      9  C   UNL     1     -11.884   4.893 -18.055  0.00  0.00    -0.026 A 
ATOM     10  C   UNL     1     -12.212   5.928 -18.952  0.00  0.00    +0.018 A 
ATOM     11  C   UNL     1     -13.125   5.726 -19.997  0.00  0.00    +0.055 A 
ENDROOT
BRANCH   1  12
ATOM     12  N   UNL     1     -14.610   4.130 -21.207  0.00  0.00    +0.080 N 
ATOM     13  O   UNL     1     -15.812   4.373 -21.029  0.00  0.00    +0.041 OA
ATOM     14  O   UNL     1     -14.135   3.574 -22.210  0.00  0.00    -0.576 OA
ENDBRANCH   1  12
BRANCH   6  15
ATOM     15  C   UNL     1     -11.006   1.609 -15.369  0.00  0.00    +0.103 C 
BRANCH  15  16
ATOM     16  N   UNL     1      -9.763   0.823 -15.315  0.00  0.00    -0.312 NA
ATOM     17  H   UNL     1      -9.538   0.593 -14.348  0.00  0.00    +0.122 HD
BRANCH  16  18
ATOM     18  C   UNL     1      -9.844  -0.433 -16.084  0.00  0.00    +0.048 C 
ATOM     19  C   UNL     1      -9.131  -0.218 -17.427  0.00  0.00    +0.023 C 
ATOM     20  C   UNL     1     -11.252  -0.928 -16.228  0.00  0.00    +0.023 C 
ENDBRANCH  16  18
ENDBRANCH  15  16
ENDBRANCH   6  15
BRANCH  11  21
ATOM     21  C   UNL     1     -13.458   6.862 -20.922  0.00  0.00    +0.197 C 
BRANCH  21  22
ATOM     22  O   UNL     1     -14.768   7.322 -20.631  0.00  0.00    -0.390 OA
ATOM     23  H   UNL     1     -15.033   6.908 -19.791  0.00  0.00    +0.210 HD
ENDBRANCH  21  22
ENDBRANCH  11  21
TORSDOF 6
ENDMDL
MODEL 4
REMARK VINA RESULT:      -5.9      2.442      3.530
REMARK  Name = min_compound927.pdb
REMARK  8 active torsions:
REMARK  status: ('A' for Active; 'I' for Inactive)
REMARK    1  A    between atoms: _1  and  _16
REMARK    2  A    between atoms: _2  and  _10
REMARK    3  A    between atoms: _9  and  _11
REMARK    4  A    between atoms: _10  and  _13
REMARK    5  A    between atoms: _11  and  _15
REMARK    6  A    between atoms: _12  and  _15
REMARK    7  A    between atoms: _12  and  _19
REMARK    8  A    between atoms: _12  and  _20
REMARK                            x       y       z     vdW  Elec       q    Type
REMARK                         _______ _______ _______ _____ _____    ______ ____
ROOT
ATOM      1  C   UNL     1     -15.185   4.889 -13.866  0.00  0.00    +0.280 A 
ATOM      2  C   UNL     1     -14.498   3.832 -14.481  0.00  0.00    +0.107 A 
ATOM      3  C   UNL     1     -14.202   3.884 -15.844  0.00  0.00    +0.037 A 
ATOM      4  N   UNL     1     -13.455   2.845 -16.418  0.00  0.00    -0.339 N 
ATOM      5  H   UNL     1     -13.632   1.950 -15.968  0.00  0.00    +0.146 HD
ATOM      6  C   UNL     1     -13.464   2.762 -17.886  0.00  0.00    +0.084 C 
ATOM      7  C   UNL     1     -13.157   4.145 -18.470  0.00  0.00    +0.028 C 
ATOM      8  C   UNL     1     -14.224   5.144 -18.036  0.00  0.00    +0.039 C 
ATOM      9  C   UNL     1     -14.533   5.044 -16.564  0.00  0.00    -0.026 A 
ATOM     10  C   UNL     1     -15.214   6.103 -15.933  0.00  0.00    +0.018 A 
ATOM     11  C   UNL     1     -15.549   6.049 -14.572  0.00  0.00    +0.055 A 
ENDROOT
BRANCH   1  12
ATOM     12  N   UNL     1     -15.540   4.723 -12.461  0.00  0.00    +0.080 N 
ATOM     13  O   UNL     1     -16.678   4.304 -12.205  0.00  0.00    +0.041 OA
ATOM     14  O   UNL     1     -14.703   5.078 -11.616  0.00  0.00    -0.576 OA
ENDBRANCH   1  12
BRANCH   6  15
ATOM     15  C   UNL     1     -12.414   1.709 -18.341  0.00  0.00    +0.103 C 
BRANCH  15  16
ATOM     16  N   UNL     1     -12.249   0.607 -17.380  0.00  0.00    -0.312 NA
ATOM     17  H   UNL     1     -12.925  -0.130 -17.576  0.00  0.00    +0.122 HD
BRANCH  16  18
ATOM     18  C   UNL     1     -10.898   0.017 -17.410  0.00  0.00    +0.048 C 
ATOM     19  C   UNL     1     -10.760  -0.923 -16.203  0.00  0.00    +0.023 C 
ATOM     20  C   UNL     1      -9.818   1.056 -17.484  0.00  0.00    +0.023 C 
ENDBRANCH  16  18
ENDBRANCH  15  16
ENDBRANCH   6  15
BRANCH  11  21
ATOM     21  C   UNL     1     -16.262   7.207 -13.935  0.00  0.00    +0.197 C 
BRANCH  21  22
ATOM     22  O   UNL     1     -15.335   8.262 -13.735  0.00  0.00    -0.390 OA
ATOM     23  H   UNL     1     -14.484   7.964 -14.101  0.00  0.00    +0.210 HD
ENDBRANCH  21  22
ENDBRANCH  11  21
TORSDOF 6
ENDMDL
MODEL 5
REMARK VINA RESULT:      -5.8      3.516      4.915
REMARK  Name = min_compound927.pdb
REMARK  8 active torsions:
REMARK  status: ('A' for Active; 'I' for Inactive)
REMARK    1  A    between atoms: _1  and  _16
REMARK    2  A    between atoms: _2  and  _10
REMARK    3  A    between atoms: _9  and  _11
REMARK    4  A    between atoms: _10  and  _13
REMARK    5  A    between atoms: _11  and  _15
REMARK    6  A    between atoms: _12  and  _15
REMARK    7  A    between atoms: _12  and  _19
REMARK    8  A    between atoms: _12  and  _20
REMARK                            x       y       z     vdW  Elec       q    Type
REMARK                         _______ _______ _______ _____ _____    ______ ____
ROOT
ATOM      1  C   UNL     1     -15.765   6.848 -15.668  0.00  0.00    +0.280 A 
ATOM      2  C   UNL     1     -15.197   5.571 -15.541  0.00  0.00    +0.107 A 
ATOM      3  C   UNL     1     -14.079   5.221 -16.301  0.00  0.00    +0.037 A 
ATOM      4  N   UNL     1     -13.491   3.963 -16.104  0.00  0.00    -0.339 N 
ATOM      5  H   UNL     1     -14.174   3.255 -15.844  0.00  0.00    +0.146 HD
ATOM      6  C   UNL     1     -12.556   3.504 -17.143  0.00  0.00    +0.084 C 
ATOM      7  C   UNL     1     -11.551   4.622 -17.443  0.00  0.00    +0.028 C 
ATOM      8  C   UNL     1     -12.281   5.856 -17.961  0.00  0.00    +0.039 C 
ATOM      9  C   UNL     1     -13.493   6.192 -17.129  0.00  0.00    -0.026 A 
ATOM     10  C   UNL     1     -14.068   7.473 -17.241  0.00  0.00    +0.018 A 
ATOM     11  C   UNL     1     -15.211   7.827 -16.510  0.00  0.00    +0.055 A 
ENDROOT
BRANCH   1  12
ATOM     12  N   UNL     1     -16.984   7.110 -14.912  0.00  0.00    +0.080 N 
ATOM     13  O   UNL     1     -16.872   7.727 -13.843  0.00  0.00    +0.041 OA
ATOM     14  O   UNL     1     -18.042   6.635 -15.353  0.00  0.00    -0.576 OA
ENDBRANCH   1  12
BRANCH   6  15
ATOM     15  C   UNL     1     -11.839   2.216 -16.648  0.00  0.00    +0.103 C 
BRANCH  15  16
ATOM     16  N   UNL     1     -10.955   1.622 -17.663  0.00  0.00    -0.312 NA
ATOM     17  H   UNL     1      -9.999   1.946 -17.523  0.00  0.00    +0.122 HD
BRANCH  16  18
ATOM     18  C   UNL     1     -10.955   0.148 -17.633  0.00  0.00    +0.048 C 
ATOM     19  C   UNL     1     -12.015  -0.309 -16.620  0.00  0.00    +0.023 C 
ATOM     20  C   UNL     1      -9.593  -0.422 -17.371  0.00  0.00    +0.023 C 
ENDBRANCH  16  18
ENDBRANCH  15  16
ENDBRANCH   6  15
BRANCH  11  21
ATOM     21  C   UNL     1     -15.782   9.210 -16.648  0.00  0.00    +0.197 C 
BRANCH  21  22
ATOM     22  O   UNL     1     -15.434   9.966 -15.499  0.00  0.00    -0.390 OA
ATOM     23  H   UNL     1     -15.381   9.342 -14.754  0.00  0.00    +0.210 HD
ENDBRANCH  21  22
ENDBRANCH  11  21
TORSDOF 6
ENDMDL
MODEL 6
REMARK VINA RESULT:      -5.8      6.213      7.602
REMARK  Name = min_compound927.pdb
REMARK  8 active torsions:
REMARK  status: ('A' for Active; 'I' for Inactive)
REMARK    1  A    between atoms: _1  and  _16
REMARK    2  A    between atoms: _2  and  _10
REMARK    3  A    between atoms: _9  and  _11
REMARK    4  A    between atoms: _10  and  _13
REMARK    5  A    between atoms: _11  and  _15
REMARK    6  A    between atoms: _12  and  _15
REMARK    7  A    between atoms: _12  and  _19
REMARK    8  A    between atoms: _12  and  _20
REMARK                            x       y       z     vdW  Elec       q    Type
REMARK                         _______ _______ _______ _____ _____    ______ ____
ROOT
ATOM      1  C   UNL     1     -11.733   1.347 -17.082  0.00  0.00    +0.280 A 
ATOM      2  C   UNL     1     -12.389   2.070 -18.090  0.00  0.00    +0.107 A 
ATOM      3  C   UNL     1     -12.362   3.466 -18.083  0.00  0.00    +0.037 A 
ATOM      4  N   UNL     1     -12.968   4.163 -19.139  0.00  0.00    -0.339 N 
ATOM      5  H   UNL     1     -13.775   3.668 -19.513  0.00  0.00    +0.146 HD
ATOM      6  C   UNL     1     -13.221   5.595 -18.924  0.00  0.00    +0.084 C 
ATOM      7  C   UNL     1     -11.944   6.256 -18.393  0.00  0.00    +0.028 C 
ATOM      8  C   UNL     1     -11.546   5.630 -17.062  0.00  0.00    +0.039 C 
ATOM      9  C   UNL     1     -11.605   4.124 -17.100  0.00  0.00    -0.026 A 
ATOM     10  C   UNL     1     -10.944   3.386 -16.099  0.00  0.00    +0.018 A 
ATOM     11  C   UNL     1     -10.990   1.984 -16.074  0.00  0.00    +0.055 A 
ENDROOT
BRANCH   1  12
ATOM     12  N   UNL     1     -11.881  -0.104 -17.103  0.00  0.00    +0.080 N 
ATOM     13  O   UNL     1     -11.066  -0.751 -17.776  0.00  0.00    +0.041 OA
ATOM     14  O   UNL     1     -12.854  -0.586 -16.504  0.00  0.00    -0.576 OA
ENDBRANCH   1  12
BRANCH   6  15
ATOM     15  C   UNL     1     -13.677   6.238 -20.265  0.00  0.00    +0.103 C 
BRANCH  15  16
ATOM     16  N   UNL     1     -12.926   5.738 -21.428  0.00  0.00    -0.312 NA
ATOM     17  H   UNL     1     -13.502   5.086 -21.959  0.00  0.00    +0.122 HD
BRANCH  16  18
ATOM     18  C   UNL     1     -12.487   6.815 -22.334  0.00  0.00    +0.048 C 
ATOM     19  C   UNL     1     -11.250   7.484 -21.716  0.00  0.00    +0.023 C 
ATOM     20  C   UNL     1     -13.590   7.779 -22.657  0.00  0.00    +0.023 C 
ENDBRANCH  16  18
ENDBRANCH  15  16
ENDBRANCH   6  15
BRANCH  11  21
ATOM     21  C   UNL     1     -10.257   1.237 -14.997  0.00  0.00    +0.197 C 
BRANCH  21  22
ATOM     22  O   UNL     1      -9.498   0.198 -15.595  0.00  0.00    -0.390 OA
ATOM     23  H   UNL     1      -8.701   0.611 -15.970  0.00  0.00    +0.210 HD
ENDBRANCH  21  22
ENDBRANCH  11  21
TORSDOF 6
ENDMDL
MODEL 7
REMARK VINA RESULT:      -5.7     11.204     13.652
REMARK  Name = min_compound927.pdb
REMARK  8 active torsions:
REMARK  status: ('A' for Active; 'I' for Inactive)
REMARK    1  A    between atoms: _1  and  _16
REMARK    2  A    between atoms: _2  and  _10
REMARK    3  A    between atoms: _9  and  _11
REMARK    4  A    between atoms: _10  and  _13
REMARK    5  A    between atoms: _11  and  _15
REMARK    6  A    between atoms: _12  and  _15
REMARK    7  A    between atoms: _12  and  _19
REMARK    8  A    between atoms: _12  and  _20
REMARK                            x       y       z     vdW  Elec       q    Type
REMARK                         _______ _______ _______ _____ _____    ______ ____
ROOT
ATOM      1  C   UNL     1     -14.706  -4.802  -1.527  0.00  0.00    +0.280 A 
ATOM      2  C   UNL     1     -15.790  -4.245  -2.222  0.00  0.00    +0.107 A 
ATOM      3  C   UNL     1     -15.776  -2.897  -2.582  0.00  0.00    +0.037 A 
ATOM      4  N   UNL     1     -16.841  -2.383  -3.337  0.00  0.00    -0.339 N 
ATOM      5  H   UNL     1     -17.722  -2.846  -3.124  0.00  0.00    +0.146 HD
ATOM      6  C   UNL     1     -16.961  -0.919  -3.394  0.00  0.00    +0.084 C 
ATOM      7  C   UNL     1     -15.598  -0.316  -3.751  0.00  0.00    +0.028 C 
ATOM      8  C   UNL     1     -14.572  -0.676  -2.682  0.00  0.00    +0.039 C 
ATOM      9  C   UNL     1     -14.630  -2.134  -2.304  0.00  0.00    -0.026 A 
ATOM     10  C   UNL     1     -13.544  -2.707  -1.613  0.00  0.00    +0.018 A 
ATOM     11  C   UNL     1     -13.560  -4.052  -1.215  0.00  0.00    +0.055 A 
ENDROOT
BRANCH   1  12
ATOM     12  N   UNL     1     -14.832  -6.193  -1.105  0.00  0.00    +0.080 N 
ATOM     13  O   UNL     1     -14.469  -7.067  -1.905  0.00  0.00    +0.041 OA
ATOM     14  O   UNL     1     -15.359  -6.408  -0.003  0.00  0.00    -0.576 OA
ENDBRANCH   1  12
BRANCH   6  15
ATOM     15  C   UNL     1     -18.042  -0.538  -4.445  0.00  0.00    +0.103 C 
BRANCH  15  16
ATOM     16  N   UNL     1     -17.996  -1.384  -5.649  0.00  0.00    -0.312 NA
ATOM     17  H   UNL     1     -18.885  -1.869  -5.767  0.00  0.00    +0.122 HD
BRANCH  16  18
ATOM     18  C   UNL     1     -17.720  -0.617  -6.879  0.00  0.00    +0.048 C 
ATOM     19  C   UNL     1     -16.312  -0.990  -7.367  0.00  0.00    +0.023 C 
ATOM     20  C   UNL     1     -17.917   0.858  -6.693  0.00  0.00    +0.023 C 
ENDBRANCH  16  18
ENDBRANCH  15  16
ENDBRANCH   6  15
BRANCH  11  21
ATOM     21  C   UNL     1     -12.374  -4.626  -0.493  0.00  0.00    +0.197 C 
BRANCH  21  22
ATOM     22  O   UNL     1     -11.314  -3.684  -0.532  0.00  0.00    -0.390 OA
ATOM     23  H   UNL     1     -10.758  -3.851   0.249  0.00  0.00    +0.210 HD
ENDBRANCH  21  22
ENDBRANCH  11  21
TORSDOF 6
ENDMDL
MODEL 8
REMARK VINA RESULT:      -5.7      9.896     11.239
REMARK  Name = min_compound927.pdb
REMARK  8 active torsions:
REMARK  status: ('A' for Active; 'I' for Inactive)
REMARK    1  A    between atoms: _1  and  _16
REMARK    2  A    between atoms: _2  and  _10
REMARK    3  A    between atoms: _9  and  _11
REMARK    4  A    between atoms: _10  and  _13
REMARK    5  A    between atoms: _11  and  _15
REMARK    6  A    between atoms: _12  and  _15
REMARK    7  A    between atoms: _12  and  _19
REMARK    8  A    between atoms: _12  and  _20
REMARK                            x       y       z     vdW  Elec       q    Type
REMARK                         _______ _______ _______ _____ _____    ______ ____
ROOT
ATOM      1  C   UNL     1     -17.741   3.198  -4.616  0.00  0.00    +0.280 A 
ATOM      2  C   UNL     1     -17.487   1.818  -4.654  0.00  0.00    +0.107 A 
ATOM      3  C   UNL     1     -16.221   1.328  -4.331  0.00  0.00    +0.037 A 
ATOM      4  N   UNL     1     -16.013  -0.059  -4.310  0.00  0.00    -0.339 N 
ATOM      5  H   UNL     1     -16.591  -0.545  -4.994  0.00  0.00    +0.146 HD
ATOM      6  C   UNL     1     -14.616  -0.516  -4.312  0.00  0.00    +0.084 C 
ATOM      7  C   UNL     1     -13.837   0.246  -3.234  0.00  0.00    +0.028 C 
ATOM      8  C   UNL     1     -13.858   1.740  -3.533  0.00  0.00    +0.039 C 
ATOM      9  C   UNL     1     -15.236   2.230  -3.896  0.00  0.00    -0.026 A 
ATOM     10  C   UNL     1     -15.506   3.612  -3.855  0.00  0.00    +0.018 A 
ATOM     11  C   UNL     1     -16.764   4.122  -4.209  0.00  0.00    +0.055 A 
ENDROOT
BRANCH   1  12
ATOM     12  N   UNL     1     -19.060   3.642  -5.054  0.00  0.00    +0.080 N 
ATOM     13  O   UNL     1     -19.953   3.710  -4.197  0.00  0.00    +0.041 OA
ATOM     14  O   UNL     1     -19.217   3.853  -6.267  0.00  0.00    -0.576 OA
ENDBRANCH   1  12
BRANCH   6  15
ATOM     15  C   UNL     1     -14.583  -2.050  -4.057  0.00  0.00    +0.103 C 
BRANCH  15  16
ATOM     16  N   UNL     1     -15.759  -2.537  -3.318  0.00  0.00    -0.312 NA
ATOM     17  H   UNL     1     -16.307  -3.160  -3.909  0.00  0.00    +0.122 HD
BRANCH  16  18
ATOM     18  C   UNL     1     -15.402  -3.262  -2.084  0.00  0.00    +0.048 C 
ATOM     19  C   UNL     1     -15.319  -2.242  -0.938  0.00  0.00    +0.023 C 
ATOM     20  C   UNL     1     -14.158  -4.086  -2.242  0.00  0.00    +0.023 C 
ENDBRANCH  16  18
ENDBRANCH  15  16
ENDBRANCH   6  15
BRANCH  11  21
ATOM     21  C   UNL     1     -17.014   5.601  -4.135  0.00  0.00    +0.197 C 
BRANCH  21  22
ATOM     22  O   UNL     1     -15.820   6.247  -3.722  0.00  0.00    -0.390 OA
ATOM     23  H   UNL     1     -15.789   7.105  -4.179  0.00  0.00    +0.210 HD
ENDBRANCH  21  22
ENDBRANCH  11  21
TORSDOF 6
ENDMDL
MODEL 9
REMARK VINA RESULT:      -5.6      3.968      6.697
REMARK  Name = min_compound927.pdb
REMARK  8 active torsions:
REMARK  status: ('A' for Active; 'I' for Inactive)
REMARK    1  A    between atoms: _1  and  _16
REMARK    2  A    between atoms: _2  and  _10
REMARK    3  A    between atoms: _9  and  _11
REMARK    4  A    between atoms: _10  and  _13
REMARK    5  A    between atoms: _11  and  _15
REMARK    6  A    between atoms: _12  and  _15
REMARK    7  A    between atoms: _12  and  _19
REMARK    8  A    between atoms: _12  and  _20
REMARK                            x       y       z     vdW  Elec       q    Type
REMARK                         _______ _______ _______ _____ _____    ______ ____
ROOT
ATOM      1  C   UNL     1     -12.676   4.001 -16.739  0.00  0.00    +0.280 A 
ATOM      2  C   UNL     1     -13.606   4.736 -15.989  0.00  0.00    +0.107 A 
ATOM      3  C   UNL     1     -14.737   4.110 -15.463  0.00  0.00    +0.037 A 
ATOM      4  N   UNL     1     -15.614   4.853 -14.660  0.00  0.00    -0.339 N 
ATOM      5  H   UNL     1     -15.654   5.831 -14.937  0.00  0.00    +0.146 HD
ATOM      6  C   UNL     1     -16.943   4.269 -14.420  0.00  0.00    +0.084 C 
ATOM      7  C   UNL     1     -16.778   2.811 -13.978  0.00  0.00    +0.028 C 
ATOM      8  C   UNL     1     -16.087   2.007 -15.074  0.00  0.00    +0.039 C 
ATOM      9  C   UNL     1     -14.883   2.723 -15.632  0.00  0.00    -0.026 A 
ATOM     10  C   UNL     1     -13.937   1.994 -16.380  0.00  0.00    +0.018 A 
ATOM     11  C   UNL     1     -12.814   2.617 -16.943  0.00  0.00    +0.055 A 
ENDROOT
BRANCH   1  12
ATOM     12  N   UNL     1     -11.568   4.741 -17.333  0.00  0.00    +0.080 N 
ATOM     13  O   UNL     1     -10.596   4.993 -16.608  0.00  0.00    +0.041 OA
ATOM     14  O   UNL     1     -11.705   5.130 -18.503  0.00  0.00    -0.576 OA
ENDBRANCH   1  12
BRANCH   6  15
ATOM     15  C   UNL     1     -17.680   5.109 -13.340  0.00  0.00    +0.103 C 
BRANCH  15  16
ATOM     16  N   UNL     1     -16.767   5.929 -12.526  0.00  0.00    -0.312 NA
ATOM     17  H   UNL     1     -17.132   6.877 -12.444  0.00  0.00    +0.122 HD
BRANCH  16  18
ATOM     18  C   UNL     1     -16.568   5.390 -11.168  0.00  0.00    +0.048 C 
ATOM     19  C   UNL     1     -15.166   4.766 -11.103  0.00  0.00    +0.023 C 
ATOM     20  C   UNL     1     -17.661   4.447 -10.758  0.00  0.00    +0.023 C 
ENDBRANCH  16  18
ENDBRANCH  15  16
ENDBRANCH   6  15
BRANCH  11  21
ATOM     21  C   UNL     1     -11.823   1.799 -17.720  0.00  0.00    +0.197 C 
BRANCH  21  22
ATOM     22  O   UNL     1     -12.464   1.274 -18.872  0.00  0.00    -0.390 OA
ATOM     23  H   UNL     1     -13.399   1.138 -18.638  0.00  0.00    +0.210 HD
ENDBRANCH  21  22
ENDBRANCH  11  21
TORSDOF 6
ENDMDL
