MODEL 1
REMARK VINA RESULT:      -6.2      0.000      0.000
REMARK  Name = min_compound914.pdb
REMARK  1 active torsions:
REMARK  status: ('A' for Active; 'I' for Inactive)
REMARK    1  A    between atoms: _7  and  _15
REMARK                            x       y       z     vdW  Elec       q    Type
REMARK                         _______ _______ _______ _____ _____    ______ ____
ROOT
ATOM      1  N   UNL     1     -14.574  -1.964  -4.996  0.00  0.00    -0.269 N 
ATOM      2  H   UNL     1     -14.065  -2.735  -5.399  0.00  0.00    +0.156 HD
ATOM      3  C   UNL     1     -14.951  -2.098  -3.663  0.00  0.00    +0.310 C 
ATOM      4  N   UNL     1     -14.522  -3.314  -3.165  0.00  0.00    -0.248 N 
ATOM      5  H   UNL     1     -14.015  -3.961  -3.739  0.00  0.00    +0.158 HD
ATOM      6  C   UNL     1     -14.757  -3.708  -1.876  0.00  0.00    +0.165 A 
ATOM      7  S   UNL     1     -14.124  -5.254  -1.507  0.00  0.00    -0.060 S 
ATOM      8  C   UNL     1     -14.730  -5.100   0.090  0.00  0.00    +0.068 A 
ATOM      9  C   UNL     1     -15.368  -3.885   0.223  0.00  0.00    +0.120 A 
ATOM     10  N   UNL     1     -15.380  -3.092  -0.907  0.00  0.00    -0.233 NA
ATOM     11  O   UNL     1     -15.572  -1.256  -3.031  0.00  0.00    -0.252 OA
ENDROOT
BRANCH   1  15
ATOM     12  C   UNL     1     -15.477   1.236  -7.600  0.00  0.00    +0.020 A 
ATOM     13  C   UNL     1     -16.425   0.271  -7.277  0.00  0.00    +0.043 A 
ATOM     14  C   UNL     1     -16.105  -0.779  -6.414  0.00  0.00    +0.043 A 
ATOM     15  C   UNL     1     -14.821  -0.874  -5.859  0.00  0.00    +0.036 A 
ATOM     16  C   UNL     1     -13.874   0.098  -6.189  0.00  0.00    +0.023 A 
ATOM     17 CL   UNL     1     -18.008   0.370  -7.947  0.00  0.00    -0.083 Cl
ATOM     18  C   UNL     1     -14.200   1.149  -7.054  0.00  0.00    +0.003 A 
ENDBRANCH   1  15
TORSDOF 1
ENDMDL
MODEL 2
REMARK VINA RESULT:      -6.1      2.083      2.542
REMARK  Name = min_compound914.pdb
REMARK  1 active torsions:
REMARK  status: ('A' for Active; 'I' for Inactive)
REMARK    1  A    between atoms: _7  and  _15
REMARK                            x       y       z     vdW  Elec       q    Type
REMARK                         _______ _______ _______ _____ _____    ______ ____
ROOT
ATOM      1  N   UNL     1     -14.905  -2.234  -3.700  0.00  0.00    -0.269 N 
ATOM      2  H   UNL     1     -15.503  -2.686  -4.373  0.00  0.00    +0.156 HD
ATOM      3  C   UNL     1     -14.539  -2.988  -2.589  0.00  0.00    +0.310 C 
ATOM      4  N   UNL     1     -15.102  -4.248  -2.660  0.00  0.00    -0.248 N 
ATOM      5  H   UNL     1     -15.682  -4.515  -3.434  0.00  0.00    +0.158 HD
ATOM      6  C   UNL     1     -14.908  -5.200  -1.697  0.00  0.00    +0.165 A 
ATOM      7  S   UNL     1     -15.712  -6.675  -2.020  0.00  0.00    -0.060 S 
ATOM      8  C   UNL     1     -15.085  -7.314  -0.556  0.00  0.00    +0.068 A 
ATOM      9  C   UNL     1     -14.312  -6.359   0.068  0.00  0.00    +0.120 A 
ATOM     10  N   UNL     1     -14.214  -5.149  -0.591  0.00  0.00    -0.233 NA
ATOM     11  O   UNL     1     -13.823  -2.586  -1.684  0.00  0.00    -0.252 OA
ENDROOT
BRANCH   1  15
ATOM     12  C   UNL     1     -13.829   1.709  -4.768  0.00  0.00    +0.020 A 
ATOM     13  C   UNL     1     -14.139   0.753  -5.730  0.00  0.00    +0.043 A 
ATOM     14  C   UNL     1     -14.492  -0.545  -5.354  0.00  0.00    +0.043 A 
ATOM     15  C   UNL     1     -14.540  -0.903  -4.000  0.00  0.00    +0.036 A 
ATOM     16  C   UNL     1     -14.227   0.062  -3.039  0.00  0.00    +0.023 A 
ATOM     17 CL   UNL     1     -14.086   1.172  -7.399  0.00  0.00    -0.083 Cl
ATOM     18  C   UNL     1     -13.874   1.361  -3.420  0.00  0.00    +0.003 A 
ENDBRANCH   1  15
TORSDOF 1
ENDMDL
MODEL 3
REMARK VINA RESULT:      -6.0      5.797      8.764
REMARK  Name = min_compound914.pdb
REMARK  1 active torsions:
REMARK  status: ('A' for Active; 'I' for Inactive)
REMARK    1  A    between atoms: _7  and  _15
REMARK                            x       y       z     vdW  Elec       q    Type
REMARK                         _______ _______ _______ _____ _____    ______ ____
ROOT
ATOM      1  N   UNL     1     -14.832   1.742  -7.997  0.00  0.00    -0.269 N 
ATOM      2  H   UNL     1     -14.034   1.819  -8.608  0.00  0.00    +0.156 HD
ATOM      3  C   UNL     1     -15.936   2.530  -8.314  0.00  0.00    +0.310 C 
ATOM      4  N   UNL     1     -15.680   3.275  -9.450  0.00  0.00    -0.248 N 
ATOM      5  H   UNL     1     -14.801   3.208  -9.929  0.00  0.00    +0.158 HD
ATOM      6  C   UNL     1     -16.595   4.138  -9.987  0.00  0.00    +0.165 A 
ATOM      7  S   UNL     1     -16.036   4.940 -11.392  0.00  0.00    -0.060 S 
ATOM      8  C   UNL     1     -17.538   5.762 -11.497  0.00  0.00    +0.068 A 
ATOM      9  C   UNL     1     -18.352   5.365 -10.456  0.00  0.00    +0.120 A 
ATOM     10  N   UNL     1     -17.805   4.435  -9.595  0.00  0.00    -0.233 NA
ATOM     11  O   UNL     1     -16.977   2.553  -7.674  0.00  0.00    -0.252 OA
ENDROOT
BRANCH   1  15
ATOM     12  C   UNL     1     -14.339  -0.813  -4.670  0.00  0.00    +0.020 A 
ATOM     13  C   UNL     1     -13.930   0.516  -4.634  0.00  0.00    +0.043 A 
ATOM     14  C   UNL     1     -14.103   1.344  -5.746  0.00  0.00    +0.043 A 
ATOM     15  C   UNL     1     -14.692   0.845  -6.916  0.00  0.00    +0.036 A 
ATOM     16  C   UNL     1     -15.099  -0.491  -6.945  0.00  0.00    +0.023 A 
ATOM     17 CL   UNL     1     -13.205   1.149  -3.206  0.00  0.00    -0.083 Cl
ATOM     18  C   UNL     1     -14.924  -1.316  -5.828  0.00  0.00    +0.003 A 
ENDBRANCH   1  15
TORSDOF 1
ENDMDL
MODEL 4
REMARK VINA RESULT:      -6.0      2.930      3.278
REMARK  Name = min_compound914.pdb
REMARK  1 active torsions:
REMARK  status: ('A' for Active; 'I' for Inactive)
REMARK    1  A    between atoms: _7  and  _15
REMARK                            x       y       z     vdW  Elec       q    Type
REMARK                         _______ _______ _______ _____ _____    ______ ____
ROOT
ATOM      1  N   UNL     1     -15.040  -2.269  -3.415  0.00  0.00    -0.269 N 
ATOM      2  H   UNL     1     -15.162  -2.837  -4.239  0.00  0.00    +0.156 HD
ATOM      3  C   UNL     1     -14.565  -2.918  -2.279  0.00  0.00    +0.310 C 
ATOM      4  N   UNL     1     -14.356  -4.258  -2.546  0.00  0.00    -0.248 N 
ATOM      5  H   UNL     1     -14.540  -4.642  -3.454  0.00  0.00    +0.158 HD
ATOM      6  C   UNL     1     -13.889  -5.134  -1.605  0.00  0.00    +0.165 A 
ATOM      7  S   UNL     1     -13.715  -6.734  -2.185  0.00  0.00    -0.060 S 
ATOM      8  C   UNL     1     -13.156  -7.214  -0.637  0.00  0.00    +0.068 A 
ATOM      9  C   UNL     1     -13.143  -6.123   0.206  0.00  0.00    +0.120 A 
ATOM     10  N   UNL     1     -13.565  -4.934  -0.355  0.00  0.00    -0.233 NA
ATOM     11  O   UNL     1     -14.366  -2.373  -1.203  0.00  0.00    -0.252 OA
ENDROOT
BRANCH   1  15
ATOM     12  C   UNL     1     -15.875   1.852  -3.814  0.00  0.00    +0.020 A 
ATOM     13  C   UNL     1     -14.578   1.388  -3.621  0.00  0.00    +0.043 A 
ATOM     14  C   UNL     1     -14.324   0.020  -3.492  0.00  0.00    +0.043 A 
ATOM     15  C   UNL     1     -15.376  -0.905  -3.555  0.00  0.00    +0.036 A 
ATOM     16  C   UNL     1     -16.676  -0.431  -3.748  0.00  0.00    +0.023 A 
ATOM     17 CL   UNL     1     -13.273   2.507  -3.541  0.00  0.00    -0.083 Cl
ATOM     18  C   UNL     1     -16.925   0.940  -3.877  0.00  0.00    +0.003 A 
ENDBRANCH   1  15
TORSDOF 1
ENDMDL
MODEL 5
REMARK VINA RESULT:      -6.0      2.260      2.586
REMARK  Name = min_compound914.pdb
REMARK  1 active torsions:
REMARK  status: ('A' for Active; 'I' for Inactive)
REMARK    1  A    between atoms: _7  and  _15
REMARK                            x       y       z     vdW  Elec       q    Type
REMARK                         _______ _______ _______ _____ _____    ______ ____
ROOT
ATOM      1  N   UNL     1     -15.521  -2.197  -3.833  0.00  0.00    -0.269 N 
ATOM      2  H   UNL     1     -16.398  -2.562  -4.170  0.00  0.00    +0.156 HD
ATOM      3  C   UNL     1     -14.987  -2.812  -2.703  0.00  0.00    +0.310 C 
ATOM      4  N   UNL     1     -15.816  -3.833  -2.278  0.00  0.00    -0.248 N 
ATOM      5  H   UNL     1     -16.667  -4.047  -2.762  0.00  0.00    +0.158 HD
ATOM      6  C   UNL     1     -15.533  -4.607  -1.186  0.00  0.00    +0.165 A 
ATOM      7  S   UNL     1     -16.716  -5.802  -0.869  0.00  0.00    -0.060 S 
ATOM      8  C   UNL     1     -15.798  -6.324   0.483  0.00  0.00    +0.068 A 
ATOM      9  C   UNL     1     -14.662  -5.551   0.592  0.00  0.00    +0.120 A 
ATOM     10  N   UNL     1     -14.516  -4.569  -0.367  0.00  0.00    -0.233 NA
ATOM     11  O   UNL     1     -13.935  -2.488  -2.171  0.00  0.00    -0.252 OA
ENDROOT
BRANCH   1  15
ATOM     12  C   UNL     1     -13.898   1.123  -5.877  0.00  0.00    +0.020 A 
ATOM     13  C   UNL     1     -14.101   1.144  -4.501  0.00  0.00    +0.043 A 
ATOM     14  C   UNL     1     -14.639   0.034  -3.844  0.00  0.00    +0.043 A 
ATOM     15  C   UNL     1     -14.982  -1.118  -4.566  0.00  0.00    +0.036 A 
ATOM     16  C   UNL     1     -14.776  -1.131  -5.948  0.00  0.00    +0.023 A 
ATOM     17 CL   UNL     1     -13.686   2.548  -3.596  0.00  0.00    -0.083 Cl
ATOM     18  C   UNL     1     -14.236  -0.017  -6.600  0.00  0.00    +0.003 A 
ENDBRANCH   1  15
TORSDOF 1
ENDMDL
MODEL 6
REMARK VINA RESULT:      -5.9     14.171     15.641
REMARK  Name = min_compound914.pdb
REMARK  1 active torsions:
REMARK  status: ('A' for Active; 'I' for Inactive)
REMARK    1  A    between atoms: _7  and  _15
REMARK                            x       y       z     vdW  Elec       q    Type
REMARK                         _______ _______ _______ _____ _____    ______ ____
ROOT
ATOM      1  N   UNL     1     -12.306   2.472 -18.159  0.00  0.00    -0.269 N 
ATOM      2  H   UNL     1     -12.642   2.311 -19.095  0.00  0.00    +0.156 HD
ATOM      3  C   UNL     1     -12.644   3.692 -17.580  0.00  0.00    +0.310 C 
ATOM      4  N   UNL     1     -13.401   4.445 -18.458  0.00  0.00    -0.248 N 
ATOM      5  H   UNL     1     -13.637   4.098 -19.369  0.00  0.00    +0.158 HD
ATOM      6  C   UNL     1     -13.870   5.691 -18.147  0.00  0.00    +0.165 A 
ATOM      7  S   UNL     1     -14.780   6.413 -19.404  0.00  0.00    -0.060 S 
ATOM      8  C   UNL     1     -15.014   7.795 -18.415  0.00  0.00    +0.068 A 
ATOM      9  C   UNL     1     -14.382   7.604 -17.204  0.00  0.00    +0.120 A 
ATOM     10  N   UNL     1     -13.729   6.397 -17.057  0.00  0.00    -0.233 NA
ATOM     11  O   UNL     1     -12.314   4.040 -16.456  0.00  0.00    -0.252 OA
ENDROOT
BRANCH   1  15
ATOM     12  C   UNL     1     -10.177  -0.725 -16.402  0.00  0.00    +0.020 A 
ATOM     13  C   UNL     1     -11.563  -0.643 -16.322  0.00  0.00    +0.043 A 
ATOM     14  C   UNL     1     -12.248   0.423 -16.911  0.00  0.00    +0.043 A 
ATOM     15  C   UNL     1     -11.545   1.427 -17.592  0.00  0.00    +0.036 A 
ATOM     16  C   UNL     1     -10.152   1.339 -17.667  0.00  0.00    +0.023 A 
ATOM     17 CL   UNL     1     -12.445  -1.865 -15.491  0.00  0.00    -0.083 Cl
ATOM     18  C   UNL     1      -9.471   0.268 -17.077  0.00  0.00    +0.003 A 
ENDBRANCH   1  15
TORSDOF 1
ENDMDL
MODEL 7
REMARK VINA RESULT:      -5.9     14.656     16.840
REMARK  Name = min_compound914.pdb
REMARK  1 active torsions:
REMARK  status: ('A' for Active; 'I' for Inactive)
REMARK    1  A    between atoms: _7  and  _15
REMARK                            x       y       z     vdW  Elec       q    Type
REMARK                         _______ _______ _______ _____ _____    ______ ____
ROOT
ATOM      1  N   UNL     1     -12.522   1.417 -19.249  0.00  0.00    -0.269 N 
ATOM      2  H   UNL     1     -12.221   0.800 -19.988  0.00  0.00    +0.156 HD
ATOM      3  C   UNL     1     -13.589   2.262 -19.542  0.00  0.00    +0.310 C 
ATOM      4  N   UNL     1     -14.019   2.057 -20.840  0.00  0.00    -0.248 N 
ATOM      5  H   UNL     1     -13.579   1.377 -21.432  0.00  0.00    +0.158 HD
ATOM      6  C   UNL     1     -15.057   2.756 -21.392  0.00  0.00    +0.165 A 
ATOM      7  S   UNL     1     -15.393   2.315 -23.011  0.00  0.00    -0.060 S 
ATOM      8  C   UNL     1     -16.662   3.469 -23.041  0.00  0.00    +0.068 A 
ATOM      9  C   UNL     1     -16.735   4.103 -21.819  0.00  0.00    +0.120 A 
ATOM     10  N   UNL     1     -15.812   3.689 -20.878  0.00  0.00    -0.233 NA
ATOM     11  O   UNL     1     -14.069   3.068 -18.759  0.00  0.00    -0.252 OA
ENDROOT
BRANCH   1  15
ATOM     12  C   UNL     1     -10.367   1.299 -15.619  0.00  0.00    +0.020 A 
ATOM     13  C   UNL     1     -10.719   2.504 -16.218  0.00  0.00    +0.043 A 
ATOM     14  C   UNL     1     -11.432   2.520 -17.419  0.00  0.00    +0.043 A 
ATOM     15  C   UNL     1     -11.804   1.319 -18.038  0.00  0.00    +0.036 A 
ATOM     16  C   UNL     1     -11.447   0.112 -17.431  0.00  0.00    +0.023 A 
ATOM     17 CL   UNL     1     -10.271   3.991 -15.474  0.00  0.00    -0.083 Cl
ATOM     18  C   UNL     1     -10.733   0.102 -16.227  0.00  0.00    +0.003 A 
ENDBRANCH   1  15
TORSDOF 1
ENDMDL
MODEL 8
REMARK VINA RESULT:      -5.8     14.546     17.020
REMARK  Name = min_compound914.pdb
REMARK  1 active torsions:
REMARK  status: ('A' for Active; 'I' for Inactive)
REMARK    1  A    between atoms: _7  and  _15
REMARK                            x       y       z     vdW  Elec       q    Type
REMARK                         _______ _______ _______ _____ _____    ______ ____
ROOT
ATOM      1  N   UNL     1     -13.025   1.453 -18.833  0.00  0.00    -0.269 N 
ATOM      2  H   UNL     1     -13.345   0.535 -19.097  0.00  0.00    +0.156 HD
ATOM      3  C   UNL     1     -13.454   2.512 -19.629  0.00  0.00    +0.310 C 
ATOM      4  N   UNL     1     -14.260   2.047 -20.650  0.00  0.00    -0.248 N 
ATOM      5  H   UNL     1     -14.468   1.070 -20.744  0.00  0.00    +0.158 HD
ATOM      6  C   UNL     1     -14.821   2.875 -21.583  0.00  0.00    +0.165 A 
ATOM      7  S   UNL     1     -15.778   2.054 -22.739  0.00  0.00    -0.060 S 
ATOM      8  C   UNL     1     -16.116   3.555 -23.497  0.00  0.00    +0.068 A 
ATOM      9  C   UNL     1     -15.477   4.568 -22.814  0.00  0.00    +0.120 A 
ATOM     10  N   UNL     1     -14.736   4.171 -21.718  0.00  0.00    -0.233 NA
ATOM     11  O   UNL     1     -13.154   3.683 -19.444  0.00  0.00    -0.252 OA
ENDROOT
BRANCH   1  15
ATOM     12  C   UNL     1     -10.458   1.465 -15.479  0.00  0.00    +0.020 A 
ATOM     13  C   UNL     1     -10.437   0.430 -16.408  0.00  0.00    +0.043 A 
ATOM     14  C   UNL     1     -11.294   0.446 -17.511  0.00  0.00    +0.043 A 
ATOM     15  C   UNL     1     -12.190   1.509 -17.696  0.00  0.00    +0.036 A 
ATOM     16  C   UNL     1     -12.206   2.544 -16.758  0.00  0.00    +0.023 A 
ATOM     17 CL   UNL     1      -9.344  -0.883 -16.199  0.00  0.00    -0.083 Cl
ATOM     18  C   UNL     1     -11.344   2.524 -15.656  0.00  0.00    +0.003 A 
ENDBRANCH   1  15
TORSDOF 1
ENDMDL
MODEL 9
REMARK VINA RESULT:      -5.7      5.204      7.979
REMARK  Name = min_compound914.pdb
REMARK  1 active torsions:
REMARK  status: ('A' for Active; 'I' for Inactive)
REMARK    1  A    between atoms: _7  and  _15
REMARK                            x       y       z     vdW  Elec       q    Type
REMARK                         _______ _______ _______ _____ _____    ______ ____
ROOT
ATOM      1  N   UNL     1     -15.051   1.457  -6.916  0.00  0.00    -0.269 N 
ATOM      2  H   UNL     1     -14.354   1.353  -7.637  0.00  0.00    +0.156 HD
ATOM      3  C   UNL     1     -16.276   1.989  -7.309  0.00  0.00    +0.310 C 
ATOM      4  N   UNL     1     -16.264   2.269  -8.663  0.00  0.00    -0.248 N 
ATOM      5  H   UNL     1     -15.452   2.088  -9.224  0.00  0.00    +0.158 HD
ATOM      6  C   UNL     1     -17.340   2.802  -9.316  0.00  0.00    +0.165 A 
ATOM      7  S   UNL     1     -17.071   3.053 -10.987  0.00  0.00    -0.060 S 
ATOM      8  C   UNL     1     -18.665   3.670 -11.131  0.00  0.00    +0.068 A 
ATOM      9  C   UNL     1     -19.283   3.639  -9.899  0.00  0.00    +0.120 A 
ATOM     10  N   UNL     1     -18.518   3.141  -8.863  0.00  0.00    -0.233 NA
ATOM     11  O   UNL     1     -17.221   2.180  -6.558  0.00  0.00    -0.252 OA
ENDROOT
BRANCH   1  15
ATOM     12  C   UNL     1     -13.939   0.056  -3.090  0.00  0.00    +0.020 A 
ATOM     13  C   UNL     1     -14.457  -0.800  -4.056  0.00  0.00    +0.043 A 
ATOM     14  C   UNL     1     -14.818  -0.316  -5.316  0.00  0.00    +0.043 A 
ATOM     15  C   UNL     1     -14.663   1.043  -5.624  0.00  0.00    +0.036 A 
ATOM     16  C   UNL     1     -14.143   1.897  -4.648  0.00  0.00    +0.023 A 
ATOM     17 CL   UNL     1     -14.655  -2.472  -3.698  0.00  0.00    -0.083 Cl
ATOM     18  C   UNL     1     -13.781   1.407  -3.388  0.00  0.00    +0.003 A 
ENDBRANCH   1  15
TORSDOF 1
ENDMDL
