MODEL 1
REMARK VINA RESULT:      -8.2      0.000      0.000
REMARK  Name = min_compound955.pdb
REMARK  3 active torsions:
REMARK  status: ('A' for Active; 'I' for Inactive)
REMARK    1  A    between atoms: _11  and  _19
REMARK    2  A    between atoms: _12  and  _20
REMARK    3  A    between atoms: _15  and  _20
REMARK                            x       y       z     vdW  Elec       q    Type
REMARK                         _______ _______ _______ _____ _____    ______ ____
ROOT
ATOM      1  O   UNL     1     -10.717   4.200 -17.465  0.00  0.00    -0.619 OA
ATOM      2  N   UNL     1     -11.567   3.310 -17.115  0.00  0.00    -0.157 N 
ATOM      3  C   UNL     1     -11.166   1.961 -17.037  0.00  0.00    +0.292 A 
ATOM      4  C   UNL     1     -12.093   0.979 -16.645  0.00  0.00    +0.292 A 
ATOM      5  C   UNL     1     -11.681  -0.374 -16.613  0.00  0.00    +0.086 A 
ATOM      6  C   UNL     1     -10.382  -0.746 -16.958  0.00  0.00    +0.007 A 
ATOM      7  C   UNL     1      -9.463   0.226 -17.334  0.00  0.00    +0.007 A 
ATOM      8  N   UNL     1     -13.410   1.353 -16.303  0.00  0.00    -0.157 N 
ATOM      9  O   UNL     1     -14.250   0.447 -15.965  0.00  0.00    -0.619 OA
ATOM     10  C   UNL     1     -13.810   2.696 -16.362  0.00  0.00    +0.268 A 
ATOM     11  C   UNL     1      -9.849   1.566 -17.371  0.00  0.00    +0.086 A 
ATOM     12  C   UNL     1     -12.891   3.668 -16.827  0.00  0.00    +0.261 A 
ATOM     13  C   UNL     1     -13.236   5.113 -17.036  0.00  0.00    +0.130 C 
ENDROOT
BRANCH  10  14
ATOM     14  C   UNL     1     -15.271   2.924 -16.037  0.00  0.00    +0.150 C 
BRANCH  14  15
ATOM     15  C   UNL     1     -15.672   3.279 -14.623  0.00  0.00    -0.037 A 
ATOM     16  C   UNL     1     -16.753   2.615 -14.018  0.00  0.00    +0.004 A 
ATOM     17  C   UNL     1     -17.127   2.909 -12.707  0.00  0.00    +0.000 A 
ATOM     18  C   UNL     1     -16.419   3.863 -11.980  0.00  0.00    +0.000 A 
ATOM     19  C   UNL     1     -15.330   4.513 -12.560  0.00  0.00    +0.000 A 
ATOM     20  C   UNL     1     -14.951   4.218 -13.872  0.00  0.00    +0.004 A 
ENDBRANCH  14  15
ENDBRANCH  10  14
TORSDOF 2
ENDMDL
MODEL 2
REMARK VINA RESULT:      -7.4      2.349      6.214
REMARK  Name = min_compound955.pdb
REMARK  3 active torsions:
REMARK  status: ('A' for Active; 'I' for Inactive)
REMARK    1  A    between atoms: _11  and  _19
REMARK    2  A    between atoms: _12  and  _20
REMARK    3  A    between atoms: _15  and  _20
REMARK                            x       y       z     vdW  Elec       q    Type
REMARK                         _______ _______ _______ _____ _____    ______ ____
ROOT
ATOM      1  O   UNL     1     -15.814   4.119 -14.602  0.00  0.00    -0.619 OA
ATOM      2  N   UNL     1     -15.066   4.149 -15.640  0.00  0.00    -0.157 N 
ATOM      3  C   UNL     1     -14.732   5.391 -16.218  0.00  0.00    +0.292 A 
ATOM      4  C   UNL     1     -13.904   5.430 -17.354  0.00  0.00    +0.292 A 
ATOM      5  C   UNL     1     -13.615   6.683 -17.944  0.00  0.00    +0.086 A 
ATOM      6  C   UNL     1     -14.131   7.869 -17.420  0.00  0.00    +0.007 A 
ATOM      7  C   UNL     1     -14.940   7.829 -16.292  0.00  0.00    +0.007 A 
ATOM      8  N   UNL     1     -13.387   4.232 -17.889  0.00  0.00    -0.157 N 
ATOM      9  O   UNL     1     -12.648   4.280 -18.934  0.00  0.00    -0.619 OA
ATOM     10  C   UNL     1     -13.701   2.995 -17.307  0.00  0.00    +0.268 A 
ATOM     11  C   UNL     1     -15.236   6.604 -15.694  0.00  0.00    +0.086 A 
ATOM     12  C   UNL     1     -14.594   2.959 -16.208  0.00  0.00    +0.261 A 
ATOM     13  C   UNL     1     -15.088   1.692 -15.573  0.00  0.00    +0.130 C 
ENDROOT
BRANCH  10  14
ATOM     14  C   UNL     1     -13.131   1.800 -18.041  0.00  0.00    +0.150 C 
BRANCH  14  15
ATOM     15  C   UNL     1     -11.950   1.060 -17.453  0.00  0.00    -0.037 A 
ATOM     16  C   UNL     1     -12.159  -0.135 -16.743  0.00  0.00    +0.004 A 
ATOM     17  C   UNL     1     -11.084  -0.846 -16.213  0.00  0.00    +0.000 A 
ATOM     18  C   UNL     1      -9.784  -0.380 -16.395  0.00  0.00    +0.000 A 
ATOM     19  C   UNL     1      -9.560   0.791 -17.117  0.00  0.00    +0.000 A 
ATOM     20  C   UNL     1     -10.635   1.505 -17.653  0.00  0.00    +0.004 A 
ENDBRANCH  14  15
ENDBRANCH  10  14
TORSDOF 2
ENDMDL
MODEL 3
REMARK VINA RESULT:      -7.3      1.942      5.840
REMARK  Name = min_compound955.pdb
REMARK  3 active torsions:
REMARK  status: ('A' for Active; 'I' for Inactive)
REMARK    1  A    between atoms: _11  and  _19
REMARK    2  A    between atoms: _12  and  _20
REMARK    3  A    between atoms: _15  and  _20
REMARK                            x       y       z     vdW  Elec       q    Type
REMARK                         _______ _______ _______ _____ _____    ______ ____
ROOT
ATOM      1  O   UNL     1     -15.020   6.595 -15.556  0.00  0.00    -0.619 OA
ATOM      2  N   UNL     1     -15.067   5.317 -15.545  0.00  0.00    -0.157 N 
ATOM      3  C   UNL     1     -15.929   4.663 -14.641  0.00  0.00    +0.292 A 
ATOM      4  C   UNL     1     -15.991   3.257 -14.630  0.00  0.00    +0.292 A 
ATOM      5  C   UNL     1     -16.831   2.620 -13.688  0.00  0.00    +0.086 A 
ATOM      6  C   UNL     1     -17.594   3.354 -12.780  0.00  0.00    +0.007 A 
ATOM      7  C   UNL     1     -17.540   4.743 -12.799  0.00  0.00    +0.007 A 
ATOM      8  N   UNL     1     -15.215   2.512 -15.543  0.00  0.00    -0.157 N 
ATOM      9  O   UNL     1     -15.267   1.233 -15.511  0.00  0.00    -0.619 OA
ATOM     10  C   UNL     1     -14.369   3.159 -16.456  0.00  0.00    +0.268 A 
ATOM     11  C   UNL     1     -16.719   5.391 -13.722  0.00  0.00    +0.086 A 
ATOM     12  C   UNL     1     -14.258   4.570 -16.411  0.00  0.00    +0.261 A 
ATOM     13  C   UNL     1     -13.308   5.362 -17.261  0.00  0.00    +0.130 C 
ENDROOT
BRANCH  10  14
ATOM     14  C   UNL     1     -13.549   2.220 -17.315  0.00  0.00    +0.150 C 
BRANCH  14  15
ATOM     15  C   UNL     1     -12.352   1.517 -16.716  0.00  0.00    -0.037 A 
ATOM     16  C   UNL     1     -12.126   0.160 -17.002  0.00  0.00    +0.004 A 
ATOM     17  C   UNL     1     -11.016  -0.504 -16.479  0.00  0.00    +0.000 A 
ATOM     18  C   UNL     1     -10.111   0.183 -15.674  0.00  0.00    +0.000 A 
ATOM     19  C   UNL     1     -10.310   1.536 -15.400  0.00  0.00    +0.000 A 
ATOM     20  C   UNL     1     -11.420   2.205 -15.926  0.00  0.00    +0.004 A 
ENDBRANCH  14  15
ENDBRANCH  10  14
TORSDOF 2
ENDMDL
MODEL 4
REMARK VINA RESULT:      -7.1     12.813     15.130
REMARK  Name = min_compound955.pdb
REMARK  3 active torsions:
REMARK  status: ('A' for Active; 'I' for Inactive)
REMARK    1  A    between atoms: _11  and  _19
REMARK    2  A    between atoms: _12  and  _20
REMARK    3  A    between atoms: _15  and  _20
REMARK                            x       y       z     vdW  Elec       q    Type
REMARK                         _______ _______ _______ _____ _____    ______ ____
ROOT
ATOM      1  O   UNL     1     -17.869  -5.357  -2.619  0.00  0.00    -0.619 OA
ATOM      2  N   UNL     1     -16.685  -4.939  -2.375  0.00  0.00    -0.157 N 
ATOM      3  C   UNL     1     -15.655  -5.872  -2.142  0.00  0.00    +0.292 A 
ATOM      4  C   UNL     1     -14.349  -5.418  -1.882  0.00  0.00    +0.292 A 
ATOM      5  C   UNL     1     -13.338  -6.370  -1.609  0.00  0.00    +0.086 A 
ATOM      6  C   UNL     1     -13.612  -7.738  -1.598  0.00  0.00    +0.007 A 
ATOM      7  C   UNL     1     -14.900  -8.185  -1.867  0.00  0.00    +0.007 A 
ATOM      8  N   UNL     1     -14.072  -4.035  -1.885  0.00  0.00    -0.157 N 
ATOM      9  O   UNL     1     -12.883  -3.634  -1.629  0.00  0.00    -0.619 OA
ATOM     10  C   UNL     1     -15.090  -3.103  -2.134  0.00  0.00    +0.268 A 
ATOM     11  C   UNL     1     -15.911  -7.263  -2.139  0.00  0.00    +0.086 A 
ATOM     12  C   UNL     1     -16.415  -3.565  -2.323  0.00  0.00    +0.261 A 
ATOM     13  C   UNL     1     -17.601  -2.661  -2.489  0.00  0.00    +0.130 C 
ENDROOT
BRANCH  10  14
ATOM     14  C   UNL     1     -14.649  -1.658  -2.030  0.00  0.00    +0.150 C 
BRANCH  14  15
ATOM     15  C   UNL     1     -14.449  -0.848  -3.290  0.00  0.00    -0.037 A 
ATOM     16  C   UNL     1     -14.134   0.518  -3.198  0.00  0.00    +0.004 A 
ATOM     17  C   UNL     1     -13.923   1.281  -4.347  0.00  0.00    +0.000 A 
ATOM     18  C   UNL     1     -14.013   0.686  -5.602  0.00  0.00    +0.000 A 
ATOM     19  C   UNL     1     -14.302  -0.674  -5.709  0.00  0.00    +0.000 A 
ATOM     20  C   UNL     1     -14.511  -1.442  -4.559  0.00  0.00    +0.004 A 
ENDBRANCH  14  15
ENDBRANCH  10  14
TORSDOF 2
ENDMDL
MODEL 5
REMARK VINA RESULT:      -7.1      7.942     10.900
REMARK  Name = min_compound955.pdb
REMARK  3 active torsions:
REMARK  status: ('A' for Active; 'I' for Inactive)
REMARK    1  A    between atoms: _11  and  _19
REMARK    2  A    between atoms: _12  and  _20
REMARK    3  A    between atoms: _15  and  _20
REMARK                            x       y       z     vdW  Elec       q    Type
REMARK                         _______ _______ _______ _____ _____    ______ ____
ROOT
ATOM      1  O   UNL     1     -17.752   6.386  -6.968  0.00  0.00    -0.619 OA
ATOM      2  N   UNL     1     -17.519   5.128  -6.958  0.00  0.00    -0.157 N 
ATOM      3  C   UNL     1     -17.349   4.446  -8.179  0.00  0.00    +0.292 A 
ATOM      4  C   UNL     1     -17.085   3.064  -8.175  0.00  0.00    +0.292 A 
ATOM      5  C   UNL     1     -16.958   2.390  -9.412  0.00  0.00    +0.086 A 
ATOM      6  C   UNL     1     -17.088   3.067 -10.625  0.00  0.00    +0.007 A 
ATOM      7  C   UNL     1     -17.337   4.434 -10.628  0.00  0.00    +0.007 A 
ATOM      8  N   UNL     1     -16.961   2.376  -6.950  0.00  0.00    -0.157 N 
ATOM      9  O   UNL     1     -16.738   1.115  -6.959  0.00  0.00    -0.619 OA
ATOM     10  C   UNL     1     -17.112   3.054  -5.731  0.00  0.00    +0.268 A 
ATOM     11  C   UNL     1     -17.464   5.117  -9.419  0.00  0.00    +0.086 A 
ATOM     12  C   UNL     1     -17.450   4.430  -5.746  0.00  0.00    +0.261 A 
ATOM     13  C   UNL     1     -17.742   5.233  -4.512  0.00  0.00    +0.130 C 
ENDROOT
BRANCH  10  14
ATOM     14  C   UNL     1     -17.024   2.164  -4.510  0.00  0.00    +0.150 C 
BRANCH  14  15
ATOM     15  C   UNL     1     -15.668   1.735  -3.997  0.00  0.00    -0.037 A 
ATOM     16  C   UNL     1     -15.459   0.400  -3.611  0.00  0.00    +0.004 A 
ATOM     17  C   UNL     1     -14.211  -0.024  -3.156  0.00  0.00    +0.000 A 
ATOM     18  C   UNL     1     -13.151   0.877  -3.093  0.00  0.00    +0.000 A 
ATOM     19  C   UNL     1     -13.337   2.200  -3.495  0.00  0.00    +0.000 A 
ATOM     20  C   UNL     1     -14.587   2.627  -3.954  0.00  0.00    +0.004 A 
ENDBRANCH  14  15
ENDBRANCH  10  14
TORSDOF 2
ENDMDL
MODEL 6
REMARK VINA RESULT:      -7.1      2.506      5.908
REMARK  Name = min_compound955.pdb
REMARK  3 active torsions:
REMARK  status: ('A' for Active; 'I' for Inactive)
REMARK    1  A    between atoms: _11  and  _19
REMARK    2  A    between atoms: _12  and  _20
REMARK    3  A    between atoms: _15  and  _20
REMARK                            x       y       z     vdW  Elec       q    Type
REMARK                         _______ _______ _______ _____ _____    ______ ____
ROOT
ATOM      1  O   UNL     1     -16.351   4.368 -18.318  0.00  0.00    -0.619 OA
ATOM      2  N   UNL     1     -15.095   4.460 -18.090  0.00  0.00    -0.157 N 
ATOM      3  C   UNL     1     -14.295   5.263 -18.928  0.00  0.00    +0.292 A 
ATOM      4  C   UNL     1     -12.916   5.374 -18.677  0.00  0.00    +0.292 A 
ATOM      5  C   UNL     1     -12.124   6.151 -19.554  0.00  0.00    +0.086 A 
ATOM      6  C   UNL     1     -12.683   6.805 -20.652  0.00  0.00    +0.007 A 
ATOM      7  C   UNL     1     -14.048   6.703 -20.893  0.00  0.00    +0.007 A 
ATOM      8  N   UNL     1     -12.347   4.708 -17.571  0.00  0.00    -0.157 N 
ATOM      9  O   UNL     1     -11.086   4.804 -17.363  0.00  0.00    -0.619 OA
ATOM     10  C   UNL     1     -13.142   3.923 -16.723  0.00  0.00    +0.268 A 
ATOM     11  C   UNL     1     -14.847   5.942 -20.039  0.00  0.00    +0.086 A 
ATOM     12  C   UNL     1     -14.515   3.757 -17.026  0.00  0.00    +0.261 A 
ATOM     13  C   UNL     1     -15.439   2.857 -16.258  0.00  0.00    +0.130 C 
ENDROOT
BRANCH  10  14
ATOM     14  C   UNL     1     -12.371   3.215 -15.629  0.00  0.00    +0.150 C 
BRANCH  14  15
ATOM     15  C   UNL     1     -11.779   1.850 -15.898  0.00  0.00    -0.037 A 
ATOM     16  C   UNL     1     -10.480   1.554 -15.451  0.00  0.00    +0.004 A 
ATOM     17  C   UNL     1      -9.922   0.294 -15.668  0.00  0.00    +0.000 A 
ATOM     18  C   UNL     1     -10.658  -0.689 -16.323  0.00  0.00    +0.000 A 
ATOM     19  C   UNL     1     -11.957  -0.417 -16.752  0.00  0.00    +0.000 A 
ATOM     20  C   UNL     1     -12.520   0.844 -16.533  0.00  0.00    +0.004 A 
ENDBRANCH  14  15
ENDBRANCH  10  14
TORSDOF 2
ENDMDL
MODEL 7
REMARK VINA RESULT:      -7.0      1.982      5.206
REMARK  Name = min_compound955.pdb
REMARK  3 active torsions:
REMARK  status: ('A' for Active; 'I' for Inactive)
REMARK    1  A    between atoms: _11  and  _19
REMARK    2  A    between atoms: _12  and  _20
REMARK    3  A    between atoms: _15  and  _20
REMARK                            x       y       z     vdW  Elec       q    Type
REMARK                         _______ _______ _______ _____ _____    ______ ____
ROOT
ATOM      1  O   UNL     1     -14.350   1.037 -16.034  0.00  0.00    -0.619 OA
ATOM      2  N   UNL     1     -13.322   1.713 -16.385  0.00  0.00    -0.157 N 
ATOM      3  C   UNL     1     -12.095   1.052 -16.590  0.00  0.00    +0.292 A 
ATOM      4  C   UNL     1     -10.963   1.789 -16.984  0.00  0.00    +0.292 A 
ATOM      5  C   UNL     1      -9.731   1.113 -17.144  0.00  0.00    +0.086 A 
ATOM      6  C   UNL     1      -9.621  -0.260 -16.924  0.00  0.00    +0.007 A 
ATOM      7  C   UNL     1     -10.742  -0.989 -16.547  0.00  0.00    +0.007 A 
ATOM      8  N   UNL     1     -11.070   3.179 -17.199  0.00  0.00    -0.157 N 
ATOM      9  O   UNL     1     -10.028   3.842 -17.540  0.00  0.00    -0.619 OA
ATOM     10  C   UNL     1     -12.294   3.839 -17.013  0.00  0.00    +0.268 A 
ATOM     11  C   UNL     1     -11.967  -0.341 -16.384  0.00  0.00    +0.086 A 
ATOM     12  C   UNL     1     -13.409   3.102 -16.547  0.00  0.00    +0.261 A 
ATOM     13  C   UNL     1     -14.736   3.717 -16.208  0.00  0.00    +0.130 C 
ENDROOT
BRANCH  10  14
ATOM     14  C   UNL     1     -12.227   5.339 -17.212  0.00  0.00    +0.150 C 
BRANCH  14  15
ATOM     15  C   UNL     1     -12.494   5.920 -18.582  0.00  0.00    -0.037 A 
ATOM     16  C   UNL     1     -11.478   6.624 -19.251  0.00  0.00    +0.004 A 
ATOM     17  C   UNL     1     -11.694   7.149 -20.524  0.00  0.00    +0.000 A 
ATOM     18  C   UNL     1     -12.924   6.968 -21.152  0.00  0.00    +0.000 A 
ATOM     19  C   UNL     1     -13.934   6.253 -20.510  0.00  0.00    +0.000 A 
ATOM     20  C   UNL     1     -13.719   5.722 -19.234  0.00  0.00    +0.004 A 
ENDBRANCH  14  15
ENDBRANCH  10  14
TORSDOF 2
ENDMDL
MODEL 8
REMARK VINA RESULT:      -7.0      3.785      5.844
REMARK  Name = min_compound955.pdb
REMARK  3 active torsions:
REMARK  status: ('A' for Active; 'I' for Inactive)
REMARK    1  A    between atoms: _11  and  _19
REMARK    2  A    between atoms: _12  and  _20
REMARK    3  A    between atoms: _15  and  _20
REMARK                            x       y       z     vdW  Elec       q    Type
REMARK                         _______ _______ _______ _____ _____    ______ ____
ROOT
ATOM      1  O   UNL     1     -10.358   4.550 -15.784  0.00  0.00    -0.619 OA
ATOM      2  N   UNL     1     -11.085   3.960 -16.656  0.00  0.00    -0.157 N 
ATOM      3  C   UNL     1     -11.114   2.551 -16.695  0.00  0.00    +0.292 A 
ATOM      4  C   UNL     1     -11.917   1.897 -17.647  0.00  0.00    +0.292 A 
ATOM      5  C   UNL     1     -11.900   0.483 -17.696  0.00  0.00    +0.086 A 
ATOM      6  C   UNL     1     -11.110  -0.265 -16.824  0.00  0.00    +0.007 A 
ATOM      7  C   UNL     1     -10.325   0.382 -15.877  0.00  0.00    +0.007 A 
ATOM      8  N   UNL     1     -12.712   2.652 -18.534  0.00  0.00    -0.157 N 
ATOM      9  O   UNL     1     -13.426   2.044 -19.408  0.00  0.00    -0.619 OA
ATOM     10  C   UNL     1     -12.700   4.054 -18.488  0.00  0.00    +0.268 A 
ATOM     11  C   UNL     1     -10.329   1.776 -15.811  0.00  0.00    +0.086 A 
ATOM     12  C   UNL     1     -11.834   4.705 -17.576  0.00  0.00    +0.261 A 
ATOM     13  C   UNL     1     -11.655   6.194 -17.510  0.00  0.00    +0.130 C 
ENDROOT
BRANCH  10  14
ATOM     14  C   UNL     1     -13.548   4.718 -19.553  0.00  0.00    +0.150 C 
BRANCH  14  15
ATOM     15  C   UNL     1     -12.917   5.106 -20.871  0.00  0.00    -0.037 A 
ATOM     16  C   UNL     1     -12.038   6.201 -20.927  0.00  0.00    +0.004 A 
ATOM     17  C   UNL     1     -11.427   6.563 -22.127  0.00  0.00    +0.000 A 
ATOM     18  C   UNL     1     -11.675   5.829 -23.284  0.00  0.00    +0.000 A 
ATOM     19  C   UNL     1     -12.527   4.726 -23.238  0.00  0.00    +0.000 A 
ATOM     20  C   UNL     1     -13.139   4.358 -22.036  0.00  0.00    +0.004 A 
ENDBRANCH  14  15
ENDBRANCH  10  14
TORSDOF 2
ENDMDL
MODEL 9
REMARK VINA RESULT:      -7.0      6.797      9.962
REMARK  Name = min_compound955.pdb
REMARK  3 active torsions:
REMARK  status: ('A' for Active; 'I' for Inactive)
REMARK    1  A    between atoms: _11  and  _19
REMARK    2  A    between atoms: _12  and  _20
REMARK    3  A    between atoms: _15  and  _20
REMARK                            x       y       z     vdW  Elec       q    Type
REMARK                         _______ _______ _______ _____ _____    ______ ____
ROOT
ATOM      1  O   UNL     1     -17.068   4.278  -4.529  0.00  0.00    -0.619 OA
ATOM      2  N   UNL     1     -16.771   3.385  -5.396  0.00  0.00    -0.157 N 
ATOM      3  C   UNL     1     -15.818   2.398  -5.075  0.00  0.00    +0.292 A 
ATOM      4  C   UNL     1     -15.494   1.409  -6.021  0.00  0.00    +0.292 A 
ATOM      5  C   UNL     1     -14.504   0.452  -5.694  0.00  0.00    +0.086 A 
ATOM      6  C   UNL     1     -13.854   0.471  -4.460  0.00  0.00    +0.007 A 
ATOM      7  C   UNL     1     -14.183   1.442  -3.523  0.00  0.00    +0.007 A 
ATOM      8  N   UNL     1     -16.145   1.392  -7.272  0.00  0.00    -0.157 N 
ATOM      9  O   UNL     1     -15.828   0.496  -8.131  0.00  0.00    -0.619 OA
ATOM     10  C   UNL     1     -17.108   2.362  -7.589  0.00  0.00    +0.268 A 
ATOM     11  C   UNL     1     -15.157   2.394  -3.825  0.00  0.00    +0.086 A 
ATOM     12  C   UNL     1     -17.375   3.396  -6.660  0.00  0.00    +0.261 A 
ATOM     13  C   UNL     1     -18.300   4.546  -6.931  0.00  0.00    +0.130 C 
ENDROOT
BRANCH  10  14
ATOM     14  C   UNL     1     -17.660   2.252  -8.995  0.00  0.00    +0.150 C 
BRANCH  14  15
ATOM     15  C   UNL     1     -16.991   3.010 -10.119  0.00  0.00    -0.037 A 
ATOM     16  C   UNL     1     -17.518   2.937 -11.419  0.00  0.00    +0.004 A 
ATOM     17  C   UNL     1     -16.931   3.646 -12.467  0.00  0.00    +0.000 A 
ATOM     18  C   UNL     1     -15.818   4.446 -12.228  0.00  0.00    +0.000 A 
ATOM     19  C   UNL     1     -15.297   4.546 -10.938  0.00  0.00    +0.000 A 
ATOM     20  C   UNL     1     -15.885   3.839  -9.885  0.00  0.00    +0.004 A 
ENDBRANCH  14  15
ENDBRANCH  10  14
TORSDOF 2
ENDMDL
