MODEL 1
REMARK VINA RESULT:      -5.5      0.000      0.000
REMARK  Name = min_compound96.pdb
REMARK  7 active torsions:
REMARK  status: ('A' for Active; 'I' for Inactive)
REMARK    1  A    between atoms: _2  and  _5
REMARK    2  A    between atoms: _3  and  _8
REMARK    3  A    between atoms: _5  and  _7
REMARK    4  A    between atoms: _10  and  _11
REMARK    5  A    between atoms: _11  and  _12
REMARK    6  A    between atoms: _12  and  _13
REMARK    7  A    between atoms: _12  and  _14
REMARK                            x       y       z     vdW  Elec       q    Type
REMARK                         _______ _______ _______ _____ _____    ______ ____
ROOT
ATOM      1  C   UNL     1     -12.573   1.363 -17.103  0.00  0.00    +0.237 C 
ATOM      2  N   UNL     1     -12.520   2.174 -16.000  0.00  0.00    -0.312 N 
ATOM      3  H   UNL     1     -12.255   1.792 -15.101  0.00  0.00    +0.149 HD
ATOM      4  O   UNL     1     -12.773   1.747 -18.248  0.00  0.00    -0.271 OA
ENDROOT
BRANCH   1   6
ATOM      5  C   UNL     1     -11.140  -0.551 -16.371  0.00  0.00    +0.096 C 
ATOM      6  C   UNL     1     -12.306  -0.057 -16.815  0.00  0.00    +0.074 C 
BRANCH   5   7
ATOM      7  C   UNL     1      -9.853   0.065 -15.988  0.00  0.00    +0.330 C 
ATOM      8  O   UNL     1      -8.846  -0.190 -16.636  0.00  0.00    -0.246 OA
BRANCH   7   9
ATOM      9  O   UNL     1      -9.834   0.907 -14.949  0.00  0.00    -0.478 OA
ATOM     10  H   UNL     1      -9.183   1.647 -15.001  0.00  0.00    +0.295 HD
ENDBRANCH   7   9
ENDBRANCH   5   7
ENDBRANCH   1   6
BRANCH   2  11
ATOM     11  C   UNL     1     -12.542   3.621 -16.140  0.00  0.00    +0.107 C 
BRANCH  11  12
ATOM     12  C   UNL     1     -11.254   4.202 -16.770  0.00  0.00    -0.000 C 
ATOM     13  C   UNL     1     -10.125   4.241 -15.785  0.00  0.00    +0.009 C 
ATOM     14  C   UNL     1     -11.533   5.560 -17.433  0.00  0.00    +0.009 C 
ENDBRANCH  11  12
ENDBRANCH   2  11
TORSDOF 5
ENDMDL
MODEL 2
REMARK VINA RESULT:      -5.0      2.182      4.918
REMARK  Name = min_compound96.pdb
REMARK  7 active torsions:
REMARK  status: ('A' for Active; 'I' for Inactive)
REMARK    1  A    between atoms: _2  and  _5
REMARK    2  A    between atoms: _3  and  _8
REMARK    3  A    between atoms: _5  and  _7
REMARK    4  A    between atoms: _10  and  _11
REMARK    5  A    between atoms: _11  and  _12
REMARK    6  A    between atoms: _12  and  _13
REMARK    7  A    between atoms: _12  and  _14
REMARK                            x       y       z     vdW  Elec       q    Type
REMARK                         _______ _______ _______ _____ _____    ______ ____
ROOT
ATOM      1  C   UNL     1     -10.890   2.992 -15.692  0.00  0.00    +0.237 C 
ATOM      2  N   UNL     1      -9.964   1.983 -15.734  0.00  0.00    -0.312 N 
ATOM      3  H   UNL     1      -8.997   2.190 -15.946  0.00  0.00    +0.149 HD
ATOM      4  O   UNL     1     -12.055   2.862 -15.338  0.00  0.00    -0.271 OA
ENDROOT
BRANCH   1   6
ATOM      5  C   UNL     1     -10.930   5.169 -16.922  0.00  0.00    +0.096 C 
ATOM      6  C   UNL     1     -10.353   4.312 -16.064  0.00  0.00    +0.074 C 
BRANCH   5   7
ATOM      7  C   UNL     1     -12.197   5.150 -17.681  0.00  0.00    +0.330 C 
ATOM      8  O   UNL     1     -12.166   5.152 -18.905  0.00  0.00    -0.246 OA
BRANCH   7   9
ATOM      9  O   UNL     1     -13.348   5.109 -17.001  0.00  0.00    -0.478 OA
ATOM     10  H   UNL     1     -13.738   4.214 -16.860  0.00  0.00    +0.295 HD
ENDBRANCH   7   9
ENDBRANCH   5   7
ENDBRANCH   1   6
BRANCH   2  11
ATOM     11  C   UNL     1     -10.271   0.670 -15.190  0.00  0.00    +0.107 C 
BRANCH  11  12
ATOM     12  C   UNL     1     -10.530  -0.404 -16.272  0.00  0.00    -0.000 C 
ATOM     13  C   UNL     1      -9.552  -0.297 -17.403  0.00  0.00    +0.009 C 
ATOM     14  C   UNL     1     -11.997  -0.379 -16.729  0.00  0.00    +0.009 C 
ENDBRANCH  11  12
ENDBRANCH   2  11
TORSDOF 5
ENDMDL
MODEL 3
REMARK VINA RESULT:      -5.0      1.873      2.707
REMARK  Name = min_compound96.pdb
REMARK  7 active torsions:
REMARK  status: ('A' for Active; 'I' for Inactive)
REMARK    1  A    between atoms: _2  and  _5
REMARK    2  A    between atoms: _3  and  _8
REMARK    3  A    between atoms: _5  and  _7
REMARK    4  A    between atoms: _10  and  _11
REMARK    5  A    between atoms: _11  and  _12
REMARK    6  A    between atoms: _12  and  _13
REMARK    7  A    between atoms: _12  and  _14
REMARK                            x       y       z     vdW  Elec       q    Type
REMARK                         _______ _______ _______ _____ _____    ______ ____
ROOT
ATOM      1  C   UNL     1     -12.294   1.875 -16.894  0.00  0.00    +0.237 C 
ATOM      2  N   UNL     1     -13.405   2.159 -16.145  0.00  0.00    -0.312 N 
ATOM      3  H   UNL     1     -14.002   1.410 -15.818  0.00  0.00    +0.149 HD
ATOM      4  O   UNL     1     -11.453   2.694 -17.242  0.00  0.00    -0.271 OA
ENDROOT
BRANCH   1   6
ATOM      5  C   UNL     1     -11.153  -0.348 -16.785  0.00  0.00    +0.096 C 
ATOM      6  C   UNL     1     -12.143   0.447 -17.222  0.00  0.00    +0.074 C 
BRANCH   5   7
ATOM      7  C   UNL     1     -10.010  -0.140 -15.871  0.00  0.00    +0.330 C 
ATOM      8  O   UNL     1      -9.120  -0.980 -15.819  0.00  0.00    -0.246 OA
BRANCH   7   9
ATOM      9  O   UNL     1      -9.974   0.978 -15.139  0.00  0.00    -0.478 OA
ATOM     10  H   UNL     1     -10.775   1.167 -14.594  0.00  0.00    +0.295 HD
ENDBRANCH   7   9
ENDBRANCH   5   7
ENDBRANCH   1   6
BRANCH   2  11
ATOM     11  C   UNL     1     -13.586   3.475 -15.554  0.00  0.00    +0.107 C 
BRANCH  11  12
ATOM     12  C   UNL     1     -15.004   3.709 -14.983  0.00  0.00    -0.000 C 
ATOM     13  C   UNL     1     -14.955   4.244 -13.584  0.00  0.00    +0.009 C 
ATOM     14  C   UNL     1     -15.866   2.445 -15.124  0.00  0.00    +0.009 C 
ENDBRANCH  11  12
ENDBRANCH   2  11
TORSDOF 5
ENDMDL
MODEL 4
REMARK VINA RESULT:      -4.9      1.820      3.879
REMARK  Name = min_compound96.pdb
REMARK  7 active torsions:
REMARK  status: ('A' for Active; 'I' for Inactive)
REMARK    1  A    between atoms: _2  and  _5
REMARK    2  A    between atoms: _3  and  _8
REMARK    3  A    between atoms: _5  and  _7
REMARK    4  A    between atoms: _10  and  _11
REMARK    5  A    between atoms: _11  and  _12
REMARK    6  A    between atoms: _12  and  _13
REMARK    7  A    between atoms: _12  and  _14
REMARK                            x       y       z     vdW  Elec       q    Type
REMARK                         _______ _______ _______ _____ _____    ______ ____
ROOT
ATOM      1  C   UNL     1     -13.331   2.104 -16.596  0.00  0.00    +0.237 C 
ATOM      2  N   UNL     1     -12.286   1.344 -17.051  0.00  0.00    -0.312 N 
ATOM      3  H   UNL     1     -11.465   1.790 -17.439  0.00  0.00    +0.149 HD
ATOM      4  O   UNL     1     -14.315   1.668 -16.012  0.00  0.00    -0.271 OA
ENDROOT
BRANCH   1   6
ATOM      5  C   UNL     1     -12.000   4.218 -16.708  0.00  0.00    +0.096 C 
ATOM      6  C   UNL     1     -13.159   3.550 -16.817  0.00  0.00    +0.074 C 
BRANCH   5   7
ATOM      7  C   UNL     1     -10.610   3.805 -16.423  0.00  0.00    +0.330 C 
ATOM      8  O   UNL     1      -9.946   3.275 -17.305  0.00  0.00    -0.246 OA
BRANCH   7   9
ATOM      9  O   UNL     1     -10.111   4.043 -15.205  0.00  0.00    -0.478 OA
ATOM     10  H   UNL     1      -9.186   4.385 -15.174  0.00  0.00    +0.295 HD
ENDBRANCH   7   9
ENDBRANCH   5   7
ENDBRANCH   1   6
BRANCH   2  11
ATOM     11  C   UNL     1     -12.196  -0.069 -16.718  0.00  0.00    +0.107 C 
BRANCH  11  12
ATOM     12  C   UNL     1     -10.763  -0.532 -16.366  0.00  0.00    -0.000 C 
ATOM     13  C   UNL     1     -10.119   0.377 -15.363  0.00  0.00    +0.009 C 
ATOM     14  C   UNL     1      -9.924  -0.730 -17.638  0.00  0.00    +0.009 C 
ENDBRANCH  11  12
ENDBRANCH   2  11
TORSDOF 5
ENDMDL
MODEL 5
REMARK VINA RESULT:      -4.8      2.065      3.033
REMARK  Name = min_compound96.pdb
REMARK  7 active torsions:
REMARK  status: ('A' for Active; 'I' for Inactive)
REMARK    1  A    between atoms: _2  and  _5
REMARK    2  A    between atoms: _3  and  _8
REMARK    3  A    between atoms: _5  and  _7
REMARK    4  A    between atoms: _10  and  _11
REMARK    5  A    between atoms: _11  and  _12
REMARK    6  A    between atoms: _12  and  _13
REMARK    7  A    between atoms: _12  and  _14
REMARK                            x       y       z     vdW  Elec       q    Type
REMARK                         _______ _______ _______ _____ _____    ______ ____
ROOT
ATOM      1  C   UNL     1     -12.154   3.400 -16.052  0.00  0.00    +0.237 C 
ATOM      2  N   UNL     1     -11.850   4.173 -17.141  0.00  0.00    -0.312 N 
ATOM      3  H   UNL     1     -10.986   4.022 -17.646  0.00  0.00    +0.149 HD
ATOM      4  O   UNL     1     -13.217   3.429 -15.445  0.00  0.00    -0.271 OA
ENDROOT
BRANCH   1   6
ATOM      5  C   UNL     1     -11.013   1.175 -16.088  0.00  0.00    +0.096 C 
ATOM      6  C   UNL     1     -11.092   2.450 -15.677  0.00  0.00    +0.074 C 
BRANCH   5   7
ATOM      7  C   UNL     1     -11.823   0.351 -17.009  0.00  0.00    +0.330 C 
ATOM      8  O   UNL     1     -12.465  -0.593 -16.566  0.00  0.00    -0.246 OA
BRANCH   7   9
ATOM      9  O   UNL     1     -11.845   0.677 -18.306  0.00  0.00    -0.478 OA
ATOM     10  H   UNL     1     -12.323   1.509 -18.537  0.00  0.00    +0.295 HD
ENDBRANCH   7   9
ENDBRANCH   5   7
ENDBRANCH   1   6
BRANCH   2  11
ATOM     11  C   UNL     1     -12.866   5.000 -17.772  0.00  0.00    +0.107 C 
BRANCH  11  12
ATOM     12  C   UNL     1     -12.644   6.517 -17.569  0.00  0.00    -0.000 C 
ATOM     13  C   UNL     1     -13.931   7.233 -17.288  0.00  0.00    +0.009 C 
ATOM     14  C   UNL     1     -11.857   7.117 -18.745  0.00  0.00    +0.009 C 
ENDBRANCH  11  12
ENDBRANCH   2  11
TORSDOF 5
ENDMDL
MODEL 6
REMARK VINA RESULT:      -4.8      1.571      2.118
REMARK  Name = min_compound96.pdb
REMARK  7 active torsions:
REMARK  status: ('A' for Active; 'I' for Inactive)
REMARK    1  A    between atoms: _2  and  _5
REMARK    2  A    between atoms: _3  and  _8
REMARK    3  A    between atoms: _5  and  _7
REMARK    4  A    between atoms: _10  and  _11
REMARK    5  A    between atoms: _11  and  _12
REMARK    6  A    between atoms: _12  and  _13
REMARK    7  A    between atoms: _12  and  _14
REMARK                            x       y       z     vdW  Elec       q    Type
REMARK                         _______ _______ _______ _____ _____    ______ ____
ROOT
ATOM      1  C   UNL     1     -11.711   2.278 -16.404  0.00  0.00    +0.237 C 
ATOM      2  N   UNL     1     -11.824   3.127 -17.472  0.00  0.00    -0.312 N 
ATOM      3  H   UNL     1     -12.369   2.856 -18.281  0.00  0.00    +0.149 HD
ATOM      4  O   UNL     1     -11.170   2.554 -15.340  0.00  0.00    -0.271 OA
ENDROOT
BRANCH   1   6
ATOM      5  C   UNL     1     -11.717  -0.198 -16.761  0.00  0.00    +0.096 C 
ATOM      6  C   UNL     1     -12.360   0.971 -16.607  0.00  0.00    +0.074 C 
BRANCH   5   7
ATOM      7  C   UNL     1     -10.292  -0.587 -16.728  0.00  0.00    +0.330 C 
ATOM      8  O   UNL     1      -9.808  -1.183 -17.682  0.00  0.00    -0.246 OA
BRANCH   7   9
ATOM      9  O   UNL     1      -9.564  -0.253 -15.656  0.00  0.00    -0.478 OA
ATOM     10  H   UNL     1      -9.623   0.688 -15.366  0.00  0.00    +0.295 HD
ENDBRANCH   7   9
ENDBRANCH   5   7
ENDBRANCH   1   6
BRANCH   2  11
ATOM     11  C   UNL     1     -11.434   4.523 -17.356  0.00  0.00    +0.107 C 
BRANCH  11  12
ATOM     12  C   UNL     1     -12.488   5.509 -17.911  0.00  0.00    -0.000 C 
ATOM     13  C   UNL     1     -11.911   6.877 -18.118  0.00  0.00    +0.009 C 
ATOM     14  C   UNL     1     -13.754   5.506 -17.041  0.00  0.00    +0.009 C 
ENDBRANCH  11  12
ENDBRANCH   2  11
TORSDOF 5
ENDMDL
MODEL 7
REMARK VINA RESULT:      -4.7     11.602     12.414
REMARK  Name = min_compound96.pdb
REMARK  7 active torsions:
REMARK  status: ('A' for Active; 'I' for Inactive)
REMARK    1  A    between atoms: _2  and  _5
REMARK    2  A    between atoms: _3  and  _8
REMARK    3  A    between atoms: _5  and  _7
REMARK    4  A    between atoms: _10  and  _11
REMARK    5  A    between atoms: _11  and  _12
REMARK    6  A    between atoms: _12  and  _13
REMARK    7  A    between atoms: _12  and  _14
REMARK                            x       y       z     vdW  Elec       q    Type
REMARK                         _______ _______ _______ _____ _____    ______ ____
ROOT
ATOM      1  C   UNL     1     -14.522   1.404  -4.675  0.00  0.00    +0.237 C 
ATOM      2  N   UNL     1     -14.042   0.796  -5.805  0.00  0.00    -0.312 N 
ATOM      3  H   UNL     1     -13.470  -0.035  -5.731  0.00  0.00    +0.149 HD
ATOM      4  O   UNL     1     -15.309   2.342  -4.662  0.00  0.00    -0.271 OA
ENDROOT
BRANCH   1   6
ATOM      5  C   UNL     1     -14.292  -0.472  -3.037  0.00  0.00    +0.096 C 
ATOM      6  C   UNL     1     -14.051   0.792  -3.421  0.00  0.00    +0.074 C 
BRANCH   5   7
ATOM      7  C   UNL     1     -14.982  -1.614  -3.672  0.00  0.00    +0.330 C 
ATOM      8  O   UNL     1     -16.013  -2.048  -3.173  0.00  0.00    -0.246 OA
BRANCH   7   9
ATOM      9  O   UNL     1     -14.465  -2.129  -4.793  0.00  0.00    -0.478 OA
ATOM     10  H   UNL     1     -14.182  -1.479  -5.479  0.00  0.00    +0.295 HD
ENDBRANCH   7   9
ENDBRANCH   5   7
ENDBRANCH   1   6
BRANCH   2  11
ATOM     11  C   UNL     1     -14.578   1.134  -7.114  0.00  0.00    +0.107 C 
BRANCH  11  12
ATOM     12  C   UNL     1     -16.032   0.653  -7.332  0.00  0.00    -0.000 C 
ATOM     13  C   UNL     1     -16.098  -0.828  -7.550  0.00  0.00    +0.009 C 
ATOM     14  C   UNL     1     -16.717   1.465  -8.442  0.00  0.00    +0.009 C 
ENDBRANCH  11  12
ENDBRANCH   2  11
TORSDOF 5
ENDMDL
MODEL 8
REMARK VINA RESULT:      -4.7      2.713      4.965
REMARK  Name = min_compound96.pdb
REMARK  7 active torsions:
REMARK  status: ('A' for Active; 'I' for Inactive)
REMARK    1  A    between atoms: _2  and  _5
REMARK    2  A    between atoms: _3  and  _8
REMARK    3  A    between atoms: _5  and  _7
REMARK    4  A    between atoms: _10  and  _11
REMARK    5  A    between atoms: _11  and  _12
REMARK    6  A    between atoms: _12  and  _13
REMARK    7  A    between atoms: _12  and  _14
REMARK                            x       y       z     vdW  Elec       q    Type
REMARK                         _______ _______ _______ _____ _____    ______ ____
ROOT
ATOM      1  C   UNL     1     -13.012   2.287 -16.614  0.00  0.00    +0.237 C 
ATOM      2  N   UNL     1     -12.175   1.300 -16.164  0.00  0.00    -0.312 N 
ATOM      3  H   UNL     1     -11.876   1.290 -15.197  0.00  0.00    +0.149 HD
ATOM      4  O   UNL     1     -13.516   2.326 -17.729  0.00  0.00    -0.271 OA
ENDROOT
BRANCH   1   6
ATOM      5  C   UNL     1     -14.533   3.528 -15.065  0.00  0.00    +0.096 C 
ATOM      6  C   UNL     1     -13.323   3.314 -15.605  0.00  0.00    +0.074 C 
BRANCH   5   7
ATOM      7  C   UNL     1     -15.843   2.860 -15.208  0.00  0.00    +0.330 C 
ATOM      8  O   UNL     1     -16.363   2.338 -14.230  0.00  0.00    -0.246 OA
BRANCH   7   9
ATOM      9  O   UNL     1     -16.435   2.867 -16.408  0.00  0.00    -0.478 OA
ATOM     10  H   UNL     1     -16.843   3.721 -16.686  0.00  0.00    +0.295 HD
ENDBRANCH   7   9
ENDBRANCH   5   7
ENDBRANCH   1   6
BRANCH   2  11
ATOM     11  C   UNL     1     -11.945   0.103 -16.956  0.00  0.00    +0.107 C 
BRANCH  11  12
ATOM     12  C   UNL     1     -10.453  -0.288 -17.070  0.00  0.00    -0.000 C 
ATOM     13  C   UNL     1      -9.945  -0.906 -15.802  0.00  0.00    +0.009 C 
ATOM     14  C   UNL     1      -9.610   0.904 -17.548  0.00  0.00    +0.009 C 
ENDBRANCH  11  12
ENDBRANCH   2  11
TORSDOF 5
ENDMDL
MODEL 9
REMARK VINA RESULT:      -4.7     11.259     12.237
REMARK  Name = min_compound96.pdb
REMARK  7 active torsions:
REMARK  status: ('A' for Active; 'I' for Inactive)
REMARK    1  A    between atoms: _2  and  _5
REMARK    2  A    between atoms: _3  and  _8
REMARK    3  A    between atoms: _5  and  _7
REMARK    4  A    between atoms: _10  and  _11
REMARK    5  A    between atoms: _11  and  _12
REMARK    6  A    between atoms: _12  and  _13
REMARK    7  A    between atoms: _12  and  _14
REMARK                            x       y       z     vdW  Elec       q    Type
REMARK                         _______ _______ _______ _____ _____    ______ ____
ROOT
ATOM      1  C   UNL     1     -15.228  -0.624  -6.682  0.00  0.00    +0.237 C 
ATOM      2  N   UNL     1     -15.566  -1.299  -5.539  0.00  0.00    -0.312 N 
ATOM      3  H   UNL     1     -16.442  -1.801  -5.486  0.00  0.00    +0.149 HD
ATOM      4  O   UNL     1     -14.149  -0.081  -6.885  0.00  0.00    -0.271 OA
ENDROOT
BRANCH   1   6
ATOM      5  C   UNL     1     -16.825   0.447  -8.282  0.00  0.00    +0.096 C 
ATOM      6  C   UNL     1     -16.275  -0.640  -7.718  0.00  0.00    +0.074 C 
BRANCH   5   7
ATOM      7  C   UNL     1     -16.579   1.898  -8.145  0.00  0.00    +0.330 C 
ATOM      8  O   UNL     1     -17.473   2.623  -7.725  0.00  0.00    -0.246 OA
BRANCH   7   9
ATOM      9  O   UNL     1     -15.372   2.374  -8.467  0.00  0.00    -0.478 OA
ATOM     10  H   UNL     1     -14.599   1.844  -8.158  0.00  0.00    +0.295 HD
ENDBRANCH   7   9
ENDBRANCH   5   7
ENDBRANCH   1   6
BRANCH   2  11
ATOM     11  C   UNL     1     -14.570  -1.564  -4.512  0.00  0.00    +0.107 C 
BRANCH  11  12
ATOM     12  C   UNL     1     -14.753  -0.709  -3.237  0.00  0.00    -0.000 C 
ATOM     13  C   UNL     1     -13.953   0.557  -3.300  0.00  0.00    +0.009 C 
ATOM     14  C   UNL     1     -14.477  -1.542  -1.975  0.00  0.00    +0.009 C 
ENDBRANCH  11  12
ENDBRANCH   2  11
TORSDOF 5
ENDMDL
