MODEL 1
REMARK VINA RESULT:      -6.5      0.000      0.000
REMARK  Name = min_compound920.pdb
REMARK  4 active torsions:
REMARK  status: ('A' for Active; 'I' for Inactive)
REMARK    1  A    between atoms: _6  and  _16
REMARK    2  A    between atoms: _10  and  _11
REMARK    3  A    between atoms: _12  and  _18
REMARK    4  A    between atoms: _16  and  _17
REMARK                            x       y       z     vdW  Elec       q    Type
REMARK                         _______ _______ _______ _____ _____    ______ ____
ROOT
ATOM      1  N   UNL     1     -13.654   3.821 -14.983  0.00  0.00    -0.307 N 
ATOM      2  H   UNL     1     -12.999   3.724 -14.220  0.00  0.00    +0.149 HD
ATOM      3  C   UNL     1     -13.540   2.994 -16.084  0.00  0.00    +0.254 C 
ATOM      4  O   UNL     1     -14.468   2.900 -16.886  0.00  0.00    -0.270 OA
ENDROOT
BRANCH   3   5
ATOM      5  C   UNL     1     -12.307   2.249 -16.200  0.00  0.00    +0.117 A 
ATOM      6  C   UNL     1     -10.960   2.559 -16.047  0.00  0.00    +0.081 A 
ATOM      7  C   UNL     1     -10.332   3.864 -15.720  0.00  0.00    +0.069 C 
ATOM      8  N   UNL     1     -10.093   1.487 -16.248  0.00  0.00    -0.146 NA
ATOM      9  N   UNL     1     -10.734   0.380 -16.575  0.00  0.00    -0.110 NA
ATOM     10  S   UNL     1     -12.385   0.590 -16.655  0.00  0.00    +0.041 S 
ENDBRANCH   3   5
BRANCH   1  11
ATOM     11  C   UNL     1     -14.898   4.509 -14.710  0.00  0.00    +0.144 C 
BRANCH  11  16
ATOM     12  C   UNL     1     -16.919   3.407 -11.023  0.00  0.00    +0.004 A 
ATOM     13  C   UNL     1     -17.329   2.880 -12.245  0.00  0.00    +0.020 A 
ATOM     14  C   UNL     1     -16.670   3.240 -13.427  0.00  0.00    +0.048 A 
ATOM     15 CL   UNL     1     -17.239   2.520 -14.895  0.00  0.00    -0.083 Cl
ATOM     16  C   UNL     1     -15.587   4.141 -13.417  0.00  0.00    +0.023 A 
ATOM     17  C   UNL     1     -15.192   4.639 -12.170  0.00  0.00    +0.129 A 
ATOM     18  F   UNL     1     -14.146   5.473 -12.071  0.00  0.00    -0.205 F 
ATOM     19  C   UNL     1     -15.845   4.288 -10.987  0.00  0.00    +0.039 A 
ENDBRANCH  11  16
ENDBRANCH   1  11
TORSDOF 3
ENDMDL
MODEL 2
REMARK VINA RESULT:      -6.3      4.259      6.682
REMARK  Name = min_compound920.pdb
REMARK  4 active torsions:
REMARK  status: ('A' for Active; 'I' for Inactive)
REMARK    1  A    between atoms: _6  and  _16
REMARK    2  A    between atoms: _10  and  _11
REMARK    3  A    between atoms: _12  and  _18
REMARK    4  A    between atoms: _16  and  _17
REMARK                            x       y       z     vdW  Elec       q    Type
REMARK                         _______ _______ _______ _____ _____    ______ ____
ROOT
ATOM      1  N   UNL     1     -14.797   5.795 -16.612  0.00  0.00    -0.307 N 
ATOM      2  H   UNL     1     -15.229   5.293 -15.849  0.00  0.00    +0.149 HD
ATOM      3  C   UNL     1     -14.699   7.171 -16.548  0.00  0.00    +0.254 C 
ATOM      4  O   UNL     1     -13.948   7.775 -17.313  0.00  0.00    -0.270 OA
ENDROOT
BRANCH   3   5
ATOM      5  C   UNL     1     -15.491   7.823 -15.529  0.00  0.00    +0.117 A 
ATOM      6  C   UNL     1     -15.910   7.478 -14.249  0.00  0.00    +0.081 A 
ATOM      7  C   UNL     1     -15.675   6.222 -13.494  0.00  0.00    +0.069 C 
ATOM      8  N   UNL     1     -16.670   8.454 -13.606  0.00  0.00    -0.146 NA
ATOM      9  N   UNL     1     -16.864   9.516 -14.365  0.00  0.00    -0.110 NA
ATOM     10  S   UNL     1     -16.150   9.378 -15.865  0.00  0.00    +0.041 S 
ENDBRANCH   3   5
BRANCH   1  11
ATOM     11  C   UNL     1     -13.948   5.042 -17.511  0.00  0.00    +0.144 C 
BRANCH  11  16
ATOM     12  C   UNL     1     -10.463   3.169 -15.711  0.00  0.00    +0.004 A 
ATOM     13  C   UNL     1     -11.699   2.526 -15.709  0.00  0.00    +0.020 A 
ATOM     14  C   UNL     1     -12.815   3.138 -16.293  0.00  0.00    +0.048 A 
ATOM     15 CL   UNL     1     -14.303   2.254 -16.258  0.00  0.00    -0.083 Cl
ATOM     16  C   UNL     1     -12.725   4.410 -16.890  0.00  0.00    +0.023 A 
ATOM     17  C   UNL     1     -11.464   5.021 -16.888  0.00  0.00    +0.129 A 
ATOM     18  F   UNL     1     -11.288   6.217 -17.469  0.00  0.00    -0.205 F 
ATOM     19  C   UNL     1     -10.348   4.421 -16.306  0.00  0.00    +0.039 A 
ENDBRANCH  11  16
ENDBRANCH   1  11
TORSDOF 3
ENDMDL
MODEL 3
REMARK VINA RESULT:      -6.3      7.036      9.030
REMARK  Name = min_compound920.pdb
REMARK  4 active torsions:
REMARK  status: ('A' for Active; 'I' for Inactive)
REMARK    1  A    between atoms: _6  and  _16
REMARK    2  A    between atoms: _10  and  _11
REMARK    3  A    between atoms: _12  and  _18
REMARK    4  A    between atoms: _16  and  _17
REMARK                            x       y       z     vdW  Elec       q    Type
REMARK                         _______ _______ _______ _____ _____    ______ ____
ROOT
ATOM      1  N   UNL     1     -17.246   2.986  -6.820  0.00  0.00    -0.307 N 
ATOM      2  H   UNL     1     -17.389   3.808  -6.251  0.00  0.00    +0.149 HD
ATOM      3  C   UNL     1     -16.813   3.131  -8.124  0.00  0.00    +0.254 C 
ATOM      4  O   UNL     1     -16.372   2.162  -8.741  0.00  0.00    -0.270 OA
ENDROOT
BRANCH   3   5
ATOM      5  C   UNL     1     -16.883   4.464  -8.677  0.00  0.00    +0.117 A 
ATOM      6  C   UNL     1     -16.361   5.082  -9.808  0.00  0.00    +0.081 A 
ATOM      7  C   UNL     1     -15.477   4.516 -10.858  0.00  0.00    +0.069 C 
ATOM      8  N   UNL     1     -16.713   6.423  -9.951  0.00  0.00    -0.146 NA
ATOM      9  N   UNL     1     -17.462   6.851  -8.953  0.00  0.00    -0.110 NA
ATOM     10  S   UNL     1     -17.764   5.669  -7.817  0.00  0.00    +0.041 S 
ENDBRANCH   3   5
BRANCH   1  11
ATOM     11  C   UNL     1     -17.095   1.719  -6.135  0.00  0.00    +0.144 C 
BRANCH  11  16
ATOM     12  C   UNL     1     -13.409   1.161  -3.901  0.00  0.00    +0.004 A 
ATOM     13  C   UNL     1     -13.742   0.309  -4.951  0.00  0.00    +0.020 A 
ATOM     14  C   UNL     1     -14.932   0.498  -5.666  0.00  0.00    +0.048 A 
ATOM     15 CL   UNL     1     -15.251  -0.600  -6.964  0.00  0.00    -0.083 Cl
ATOM     16  C   UNL     1     -15.821   1.543  -5.345  0.00  0.00    +0.023 A 
ATOM     17  C   UNL     1     -15.447   2.390  -4.294  0.00  0.00    +0.129 A 
ATOM     18  F   UNL     1     -16.221   3.430  -3.951  0.00  0.00    -0.205 F 
ATOM     19  C   UNL     1     -14.265   2.207  -3.575  0.00  0.00    +0.039 A 
ENDBRANCH  11  16
ENDBRANCH   1  11
TORSDOF 3
ENDMDL
MODEL 4
REMARK VINA RESULT:      -6.3      8.761     10.400
REMARK  Name = min_compound920.pdb
REMARK  4 active torsions:
REMARK  status: ('A' for Active; 'I' for Inactive)
REMARK    1  A    between atoms: _6  and  _16
REMARK    2  A    between atoms: _10  and  _11
REMARK    3  A    between atoms: _12  and  _18
REMARK    4  A    between atoms: _16  and  _17
REMARK                            x       y       z     vdW  Elec       q    Type
REMARK                         _______ _______ _______ _____ _____    ______ ____
ROOT
ATOM      1  N   UNL     1     -15.389   1.308  -7.244  0.00  0.00    -0.307 N 
ATOM      2  H   UNL     1     -15.516   0.666  -8.014  0.00  0.00    +0.149 HD
ATOM      3  C   UNL     1     -16.484   1.977  -6.731  0.00  0.00    +0.254 C 
ATOM      4  O   UNL     1     -16.411   2.539  -5.640  0.00  0.00    -0.270 OA
ENDROOT
BRANCH   3   5
ATOM      5  C   UNL     1     -17.688   1.938  -7.530  0.00  0.00    +0.117 A 
ATOM      6  C   UNL     1     -18.790   1.092  -7.596  0.00  0.00    +0.081 A 
ATOM      7  C   UNL     1     -19.068  -0.143  -6.822  0.00  0.00    +0.069 C 
ATOM      8  N   UNL     1     -19.749   1.463  -8.538  0.00  0.00    -0.146 NA
ATOM      9  N   UNL     1     -19.400   2.546  -9.206  0.00  0.00    -0.110 NA
ATOM     10  S   UNL     1     -17.919   3.148  -8.734  0.00  0.00    +0.041 S 
ENDBRANCH   3   5
BRANCH   1  11
ATOM     11  C   UNL     1     -14.178   1.179  -6.461  0.00  0.00    +0.144 C 
BRANCH  11  16
ATOM     12  C   UNL     1     -14.410  -1.383  -2.957  0.00  0.00    +0.004 A 
ATOM     13  C   UNL     1     -14.071  -0.037  -2.835  0.00  0.00    +0.020 A 
ATOM     14  C   UNL     1     -14.001   0.780  -3.970  0.00  0.00    +0.048 A 
ATOM     15 CL   UNL     1     -13.589   2.442  -3.718  0.00  0.00    -0.083 Cl
ATOM     16  C   UNL     1     -14.263   0.271  -5.257  0.00  0.00    +0.023 A 
ATOM     17  C   UNL     1     -14.616  -1.082  -5.341  0.00  0.00    +0.129 A 
ATOM     18  F   UNL     1     -14.917  -1.633  -6.526  0.00  0.00    -0.205 F 
ATOM     19  C   UNL     1     -14.686  -1.904  -4.216  0.00  0.00    +0.039 A 
ENDBRANCH  11  16
ENDBRANCH   1  11
TORSDOF 3
ENDMDL
MODEL 5
REMARK VINA RESULT:      -6.2      6.974      8.983
REMARK  Name = min_compound920.pdb
REMARK  4 active torsions:
REMARK  status: ('A' for Active; 'I' for Inactive)
REMARK    1  A    between atoms: _6  and  _16
REMARK    2  A    between atoms: _10  and  _11
REMARK    3  A    between atoms: _12  and  _18
REMARK    4  A    between atoms: _16  and  _17
REMARK                            x       y       z     vdW  Elec       q    Type
REMARK                         _______ _______ _______ _____ _____    ______ ____
ROOT
ATOM      1  N   UNL     1     -17.357   3.061  -7.153  0.00  0.00    -0.307 N 
ATOM      2  H   UNL     1     -17.625   3.843  -6.573  0.00  0.00    +0.149 HD
ATOM      3  C   UNL     1     -16.772   3.298  -8.382  0.00  0.00    +0.254 C 
ATOM      4  O   UNL     1     -16.193   2.391  -8.977  0.00  0.00    -0.270 OA
ENDROOT
BRANCH   3   5
ATOM      5  C   UNL     1     -16.859   4.651  -8.881  0.00  0.00    +0.117 A 
ATOM      6  C   UNL     1     -16.312   5.330  -9.965  0.00  0.00    +0.081 A 
ATOM      7  C   UNL     1     -15.374   4.833 -11.003  0.00  0.00    +0.069 C 
ATOM      8  N   UNL     1     -16.696   6.666 -10.065  0.00  0.00    -0.146 NA
ATOM      9  N   UNL     1     -17.495   7.031  -9.081  0.00  0.00    -0.110 NA
ATOM     10  S   UNL     1     -17.805   5.795  -8.007  0.00  0.00    +0.041 S 
ENDBRANCH   3   5
BRANCH   1  11
ATOM     11  C   UNL     1     -17.211   1.772  -6.510  0.00  0.00    +0.144 C 
BRANCH  11  16
ATOM     12  C   UNL     1     -13.643   1.268  -4.079  0.00  0.00    +0.004 A 
ATOM     13  C   UNL     1     -14.683   2.094  -3.657  0.00  0.00    +0.020 A 
ATOM     14  C   UNL     1     -15.829   2.248  -4.447  0.00  0.00    +0.048 A 
ATOM     15 CL   UNL     1     -17.074   3.281  -3.832  0.00  0.00    -0.083 Cl
ATOM     16  C   UNL     1     -15.962   1.584  -5.682  0.00  0.00    +0.023 A 
ATOM     17  C   UNL     1     -14.905   0.750  -6.068  0.00  0.00    +0.129 A 
ATOM     18  F   UNL     1     -14.972   0.053  -7.212  0.00  0.00    -0.205 F 
ATOM     19  C   UNL     1     -13.759   0.592  -5.288  0.00  0.00    +0.039 A 
ENDBRANCH  11  16
ENDBRANCH   1  11
TORSDOF 3
ENDMDL
MODEL 6
REMARK VINA RESULT:      -6.2      4.209      6.708
REMARK  Name = min_compound920.pdb
REMARK  4 active torsions:
REMARK  status: ('A' for Active; 'I' for Inactive)
REMARK    1  A    between atoms: _6  and  _16
REMARK    2  A    between atoms: _10  and  _11
REMARK    3  A    between atoms: _12  and  _18
REMARK    4  A    between atoms: _16  and  _17
REMARK                            x       y       z     vdW  Elec       q    Type
REMARK                         _______ _______ _______ _____ _____    ______ ____
ROOT
ATOM      1  N   UNL     1     -15.190   5.370 -16.007  0.00  0.00    -0.307 N 
ATOM      2  H   UNL     1     -15.515   4.638 -15.391  0.00  0.00    +0.149 HD
ATOM      3  C   UNL     1     -15.254   6.685 -15.588  0.00  0.00    +0.254 C 
ATOM      4  O   UNL     1     -14.625   7.556 -16.187  0.00  0.00    -0.270 OA
ENDROOT
BRANCH   3   5
ATOM      5  C   UNL     1     -16.059   6.946 -14.417  0.00  0.00    +0.117 A 
ATOM      6  C   UNL     1     -16.074   6.460 -13.113  0.00  0.00    +0.081 A 
ATOM      7  C   UNL     1     -15.215   5.422 -12.493  0.00  0.00    +0.069 C 
ATOM      8  N   UNL     1     -17.050   7.028 -12.295  0.00  0.00    -0.146 NA
ATOM      9  N   UNL     1     -17.792   7.908 -12.940  0.00  0.00    -0.110 NA
ATOM     10  S   UNL     1     -17.351   8.079 -14.538  0.00  0.00    +0.041 S 
ENDBRANCH   3   5
BRANCH   1  11
ATOM     11  C   UNL     1     -14.309   4.989 -17.090  0.00  0.00    +0.144 C 
BRANCH  11  16
ATOM     12  C   UNL     1     -10.412   3.442 -15.946  0.00  0.00    +0.004 A 
ATOM     13  C   UNL     1     -10.525   4.638 -16.650  0.00  0.00    +0.020 A 
ATOM     14  C   UNL     1     -11.786   5.129 -17.012  0.00  0.00    +0.048 A 
ATOM     15 CL   UNL     1     -11.828   6.632 -17.869  0.00  0.00    -0.083 Cl
ATOM     16  C   UNL     1     -12.965   4.432 -16.684  0.00  0.00    +0.023 A 
ATOM     17  C   UNL     1     -12.815   3.241 -15.963  0.00  0.00    +0.129 A 
ATOM     18  F   UNL     1     -13.892   2.538 -15.580  0.00  0.00    -0.205 F 
ATOM     19  C   UNL     1     -11.563   2.743 -15.600  0.00  0.00    +0.039 A 
ENDBRANCH  11  16
ENDBRANCH   1  11
TORSDOF 3
ENDMDL
MODEL 7
REMARK VINA RESULT:      -6.2      3.502      6.577
REMARK  Name = min_compound920.pdb
REMARK  4 active torsions:
REMARK  status: ('A' for Active; 'I' for Inactive)
REMARK    1  A    between atoms: _6  and  _16
REMARK    2  A    between atoms: _10  and  _11
REMARK    3  A    between atoms: _12  and  _18
REMARK    4  A    between atoms: _16  and  _17
REMARK                            x       y       z     vdW  Elec       q    Type
REMARK                         _______ _______ _______ _____ _____    ______ ____
ROOT
ATOM      1  N   UNL     1     -14.019   3.573 -14.663  0.00  0.00    -0.307 N 
ATOM      2  H   UNL     1     -13.699   2.888 -13.994  0.00  0.00    +0.149 HD
ATOM      3  C   UNL     1     -14.953   4.514 -14.275  0.00  0.00    +0.254 C 
ATOM      4  O   UNL     1     -15.152   5.511 -14.968  0.00  0.00    -0.270 OA
ENDROOT
BRANCH   3   5
ATOM      5  C   UNL     1     -15.630   4.266 -13.023  0.00  0.00    +0.117 A 
ATOM      6  C   UNL     1     -16.819   3.642 -12.661  0.00  0.00    +0.081 A 
ATOM      7  C   UNL     1     -17.848   3.017 -13.530  0.00  0.00    +0.069 C 
ATOM      8  N   UNL     1     -17.071   3.624 -11.291  0.00  0.00    -0.146 NA
ATOM      9  N   UNL     1     -16.127   4.237 -10.602  0.00  0.00    -0.110 NA
ATOM     10  S   UNL     1     -14.917   4.854 -11.569  0.00  0.00    +0.041 S 
ENDBRANCH   3   5
BRANCH   1  11
ATOM     11  C   UNL     1     -13.198   3.796 -15.834  0.00  0.00    +0.144 C 
BRANCH  11  16
ATOM     12  C   UNL     1     -10.713   0.471 -17.122  0.00  0.00    +0.004 A 
ATOM     13  C   UNL     1     -10.171   1.743 -16.956  0.00  0.00    +0.020 A 
ATOM     14  C   UNL     1     -10.980   2.807 -16.539  0.00  0.00    +0.048 A 
ATOM     15 CL   UNL     1     -10.214   4.347 -16.344  0.00  0.00    -0.083 Cl
ATOM     16  C   UNL     1     -12.354   2.627 -16.282  0.00  0.00    +0.023 A 
ATOM     17  C   UNL     1     -12.862   1.332 -16.444  0.00  0.00    +0.129 A 
ATOM     18  F   UNL     1     -14.151   1.070 -16.183  0.00  0.00    -0.205 F 
ATOM     19  C   UNL     1     -12.064   0.266 -16.862  0.00  0.00    +0.039 A 
ENDBRANCH  11  16
ENDBRANCH   1  11
TORSDOF 3
ENDMDL
MODEL 8
REMARK VINA RESULT:      -6.1      1.797      2.047
REMARK  Name = min_compound920.pdb
REMARK  4 active torsions:
REMARK  status: ('A' for Active; 'I' for Inactive)
REMARK    1  A    between atoms: _6  and  _16
REMARK    2  A    between atoms: _10  and  _11
REMARK    3  A    between atoms: _12  and  _18
REMARK    4  A    between atoms: _16  and  _17
REMARK                            x       y       z     vdW  Elec       q    Type
REMARK                         _______ _______ _______ _____ _____    ______ ____
ROOT
ATOM      1  N   UNL     1     -13.749   3.784 -15.469  0.00  0.00    -0.307 N 
ATOM      2  H   UNL     1     -13.221   3.736 -14.610  0.00  0.00    +0.149 HD
ATOM      3  C   UNL     1     -13.478   2.886 -16.483  0.00  0.00    +0.254 C 
ATOM      4  O   UNL     1     -14.272   2.741 -17.411  0.00  0.00    -0.270 OA
ENDROOT
BRANCH   3   5
ATOM      5  C   UNL     1     -12.252   2.131 -16.358  0.00  0.00    +0.117 A 
ATOM      6  C   UNL     1     -10.939   2.447 -16.023  0.00  0.00    +0.081 A 
ATOM      7  C   UNL     1     -10.351   3.769 -15.694  0.00  0.00    +0.069 C 
ATOM      8  N   UNL     1     -10.066   1.361 -16.017  0.00  0.00    -0.146 NA
ATOM      9  N   UNL     1     -10.664   0.237 -16.361  0.00  0.00    -0.110 NA
ATOM     10  S   UNL     1     -12.282   0.444 -16.706  0.00  0.00    +0.041 S 
ENDBRANCH   3   5
BRANCH   1  11
ATOM     11  C   UNL     1     -15.012   4.492 -15.437  0.00  0.00    +0.144 C 
BRANCH  11  16
ATOM     12  C   UNL     1     -17.526   3.802 -11.960  0.00  0.00    +0.004 A 
ATOM     13  C   UNL     1     -17.016   5.069 -12.230  0.00  0.00    +0.020 A 
ATOM     14  C   UNL     1     -16.208   5.281 -13.354  0.00  0.00    +0.048 A 
ATOM     15 CL   UNL     1     -15.634   6.892 -13.617  0.00  0.00    -0.083 Cl
ATOM     16  C   UNL     1     -15.886   4.229 -14.234  0.00  0.00    +0.023 A 
ATOM     17  C   UNL     1     -16.429   2.972 -13.941  0.00  0.00    +0.129 A 
ATOM     18  F   UNL     1     -16.200   1.927 -14.751  0.00  0.00    -0.205 F 
ATOM     19  C   UNL     1     -17.233   2.751 -12.822  0.00  0.00    +0.039 A 
ENDBRANCH  11  16
ENDBRANCH   1  11
TORSDOF 3
ENDMDL
MODEL 9
REMARK VINA RESULT:      -6.1      3.311      6.272
REMARK  Name = min_compound920.pdb
REMARK  4 active torsions:
REMARK  status: ('A' for Active; 'I' for Inactive)
REMARK    1  A    between atoms: _6  and  _16
REMARK    2  A    between atoms: _10  and  _11
REMARK    3  A    between atoms: _12  and  _18
REMARK    4  A    between atoms: _16  and  _17
REMARK                            x       y       z     vdW  Elec       q    Type
REMARK                         _______ _______ _______ _____ _____    ______ ____
ROOT
ATOM      1  N   UNL     1     -13.383   4.333 -16.238  0.00  0.00    -0.307 N 
ATOM      2  H   UNL     1     -13.103   5.065 -15.600  0.00  0.00    +0.149 HD
ATOM      3  C   UNL     1     -14.724   4.034 -16.380  0.00  0.00    +0.254 C 
ATOM      4  O   UNL     1     -15.110   3.357 -17.331  0.00  0.00    -0.270 OA
ENDROOT
BRANCH   3   5
ATOM      5  C   UNL     1     -15.612   4.586 -15.382  0.00  0.00    +0.117 A 
ATOM      6  C   UNL     1     -16.421   4.046 -14.387  0.00  0.00    +0.081 A 
ATOM      7  C   UNL     1     -16.656   2.620 -14.045  0.00  0.00    +0.069 C 
ATOM      8  N   UNL     1     -17.112   4.988 -13.628  0.00  0.00    -0.146 NA
ATOM      9  N   UNL     1     -16.876   6.223 -14.028  0.00  0.00    -0.110 NA
ATOM     10  S   UNL     1     -15.829   6.293 -15.323  0.00  0.00    +0.041 S 
ENDBRANCH   3   5
BRANCH   1  11
ATOM     11  C   UNL     1     -12.433   3.936 -17.256  0.00  0.00    +0.144 C 
BRANCH  11  16
ATOM     12  C   UNL     1     -10.441   0.120 -16.659  0.00  0.00    +0.004 A 
ATOM     13  C   UNL     1     -11.281   0.322 -17.752  0.00  0.00    +0.020 A 
ATOM     14  C   UNL     1     -11.917   1.557 -17.936  0.00  0.00    +0.048 A 
ATOM     15 CL   UNL     1     -12.927   1.719 -19.331  0.00  0.00    -0.083 Cl
ATOM     16  C   UNL     1     -11.733   2.618 -17.029  0.00  0.00    +0.023 A 
ATOM     17  C   UNL     1     -10.869   2.385 -15.950  0.00  0.00    +0.129 A 
ATOM     18  F   UNL     1     -10.612   3.358 -15.063  0.00  0.00    -0.205 F 
ATOM     19  C   UNL     1     -10.234   1.158 -15.758  0.00  0.00    +0.039 A 
ENDBRANCH  11  16
ENDBRANCH   1  11
TORSDOF 3
ENDMDL
