MODEL 1
REMARK VINA RESULT:      -7.9      0.000      0.000
REMARK  Name = min_compound964.pdb
REMARK  4 active torsions:
REMARK  status: ('A' for Active; 'I' for Inactive)
REMARK    1  A    between atoms: _5  and  _7
REMARK    2  A    between atoms: _7  and  _9
REMARK    3  A    between atoms: _9  and  _10
REMARK    4  A    between atoms: _9  and  _16
REMARK                            x       y       z     vdW  Elec       q    Type
REMARK                         _______ _______ _______ _____ _____    ______ ____
ROOT
ATOM      1  P   UNL     1     -13.478   3.117 -17.246  0.00  0.00    +0.263 P 
ATOM      2  O   UNL     1     -12.598   2.997 -18.455  0.00  0.00    -0.281 OA
ENDROOT
BRANCH   1   3
ATOM      3  C   UNL     1     -13.574   4.598 -17.463  0.00  0.00    +0.041 A 
ATOM      4  C   UNL     1     -14.790   5.265 -17.771  0.00  0.00    +0.014 A 
ATOM      5  C   UNL     1     -14.882   6.645 -17.993  0.00  0.00    +0.001 A 
ATOM      6  C   UNL     1     -13.742   7.432 -17.944  0.00  0.00    +0.000 A 
ATOM      7  C   UNL     1     -12.515   6.836 -17.693  0.00  0.00    +0.001 A 
ATOM      8  C   UNL     1     -12.441   5.455 -17.471  0.00  0.00    +0.014 A 
ENDBRANCH   1   3
BRANCH   1   9
ATOM      9  C   UNL     1     -14.358   3.237 -16.037  0.00  0.00    +0.041 A 
ATOM     10  C   UNL     1     -15.543   2.474 -15.866  0.00  0.00    +0.014 A 
ATOM     11  C   UNL     1     -16.354   2.548 -14.726  0.00  0.00    +0.001 A 
ATOM     12  C   UNL     1     -16.000   3.386 -13.679  0.00  0.00    +0.000 A 
ATOM     13  C   UNL     1     -14.834   4.132 -13.769  0.00  0.00    +0.001 A 
ATOM     14  C   UNL     1     -14.033   4.042 -14.914  0.00  0.00    +0.014 A 
ENDBRANCH   1   9
BRANCH   1  15
ATOM     15  O   UNL     1     -13.382   1.635 -17.029  0.00  0.00    -0.318 OA
BRANCH  15  20
ATOM     16  C   UNL     1      -9.968   0.667 -15.222  0.00  0.00    +0.003 C 
ATOM     17  C   UNL     1      -9.651  -0.667 -16.014  0.00  0.00    +0.000 C 
ATOM     18  C   UNL     1     -10.143  -0.622 -17.430  0.00  0.00    +0.003 C 
ATOM     19  C   UNL     1     -11.735  -0.327 -17.020  0.00  0.00    +0.032 C 
ATOM     20  C   UNL     1     -12.148   0.889 -16.542  0.00  0.00    +0.127 C 
ATOM     21  C   UNL     1     -11.086   1.628 -15.785  0.00  0.00    +0.032 C 
ENDBRANCH  15  20
ENDBRANCH   1  15
TORSDOF 4
ENDMDL
MODEL 2
REMARK VINA RESULT:      -7.7      1.747      6.009
REMARK  Name = min_compound964.pdb
REMARK  4 active torsions:
REMARK  status: ('A' for Active; 'I' for Inactive)
REMARK    1  A    between atoms: _5  and  _7
REMARK    2  A    between atoms: _7  and  _9
REMARK    3  A    between atoms: _9  and  _10
REMARK    4  A    between atoms: _9  and  _16
REMARK                            x       y       z     vdW  Elec       q    Type
REMARK                         _______ _______ _______ _____ _____    ______ ____
ROOT
ATOM      1  P   UNL     1     -12.726   1.589 -16.582  0.00  0.00    +0.263 P 
ATOM      2  O   UNL     1     -13.523   0.320 -16.507  0.00  0.00    -0.281 OA
ENDROOT
BRANCH   1   3
ATOM      3  C   UNL     1     -11.457   0.790 -16.610  0.00  0.00    +0.041 A 
ATOM      4  C   UNL     1     -10.437   0.978 -17.579  0.00  0.00    +0.014 A 
ATOM      5  C   UNL     1      -9.258   0.222 -17.622  0.00  0.00    +0.001 A 
ATOM      6  C   UNL     1      -9.052  -0.792 -16.699  0.00  0.00    +0.000 A 
ATOM      7  C   UNL     1     -10.031  -1.058 -15.752  0.00  0.00    +0.001 A 
ATOM      8  C   UNL     1     -11.202  -0.291 -15.723  0.00  0.00    +0.014 A 
ENDBRANCH   1   3
BRANCH   1   9
ATOM      9  C   UNL     1     -11.929   2.857 -16.657  0.00  0.00    +0.041 A 
ATOM     10  C   UNL     1     -12.187   3.876 -17.610  0.00  0.00    +0.014 A 
ATOM     11  C   UNL     1     -11.476   5.081 -17.668  0.00  0.00    +0.001 A 
ATOM     12  C   UNL     1     -10.471   5.337 -16.747  0.00  0.00    +0.000 A 
ATOM     13  C   UNL     1     -10.194   4.396 -15.765  0.00  0.00    +0.001 A 
ATOM     14  C   UNL     1     -10.917   3.198 -15.720  0.00  0.00    +0.014 A 
ENDBRANCH   1   9
BRANCH   1  15
ATOM     15  O   UNL     1     -13.995   2.388 -16.554  0.00  0.00    -0.318 OA
BRANCH  15  20
ATOM     16  C   UNL     1     -16.725   2.636 -13.665  0.00  0.00    +0.003 C 
ATOM     17  C   UNL     1     -16.238   3.985 -12.994  0.00  0.00    +0.000 C 
ATOM     18  C   UNL     1     -15.635   4.933 -13.988  0.00  0.00    +0.003 C 
ATOM     19  C   UNL     1     -14.463   3.864 -14.513  0.00  0.00    +0.032 C 
ATOM     20  C   UNL     1     -14.765   2.786 -15.302  0.00  0.00    +0.127 C 
ATOM     21  C   UNL     1     -16.148   2.250 -15.082  0.00  0.00    +0.032 C 
ENDBRANCH  15  20
ENDBRANCH   1  15
TORSDOF 4
ENDMDL
MODEL 3
REMARK VINA RESULT:      -7.5      1.765      5.649
REMARK  Name = min_compound964.pdb
REMARK  4 active torsions:
REMARK  status: ('A' for Active; 'I' for Inactive)
REMARK    1  A    between atoms: _5  and  _7
REMARK    2  A    between atoms: _7  and  _9
REMARK    3  A    between atoms: _9  and  _10
REMARK    4  A    between atoms: _9  and  _16
REMARK                            x       y       z     vdW  Elec       q    Type
REMARK                         _______ _______ _______ _____ _____    ______ ____
ROOT
ATOM      1  P   UNL     1     -11.406   3.485 -16.851  0.00  0.00    +0.263 P 
ATOM      2  O   UNL     1     -10.080   3.733 -17.507  0.00  0.00    -0.281 OA
ENDROOT
BRANCH   1   3
ATOM      3  C   UNL     1     -11.049   2.039 -16.676  0.00  0.00    +0.041 A 
ATOM      4  C   UNL     1     -10.533   1.503 -15.466  0.00  0.00    +0.014 A 
ATOM      5  C   UNL     1     -10.180   0.156 -15.303  0.00  0.00    +0.001 A 
ATOM      6  C   UNL     1     -10.303  -0.725 -16.366  0.00  0.00    +0.000 A 
ATOM      7  C   UNL     1     -10.758  -0.256 -17.589  0.00  0.00    +0.001 A 
ATOM      8  C   UNL     1     -11.108   1.092 -17.734  0.00  0.00    +0.014 A 
ENDBRANCH   1   3
BRANCH   1   9
ATOM      9  C   UNL     1     -12.732   3.237 -16.195  0.00  0.00    +0.041 A 
ATOM     10  C   UNL     1     -13.205   4.001 -15.097  0.00  0.00    +0.014 A 
ATOM     11  C   UNL     1     -14.457   3.806 -14.499  0.00  0.00    +0.001 A 
ATOM     12  C   UNL     1     -15.316   2.835 -14.993  0.00  0.00    +0.000 A 
ATOM     13  C   UNL     1     -14.928   2.078 -16.089  0.00  0.00    +0.001 A 
ATOM     14  C   UNL     1     -13.674   2.289 -16.677  0.00  0.00    +0.014 A 
ENDBRANCH   1   9
BRANCH   1  15
ATOM     15  O   UNL     1     -11.763   4.931 -17.026  0.00  0.00    -0.318 OA
BRANCH  15  20
ATOM     16  C   UNL     1     -13.454   5.560 -20.576  0.00  0.00    +0.003 C 
ATOM     17  C   UNL     1     -12.815   6.973 -20.896  0.00  0.00    +0.000 C 
ATOM     18  C   UNL     1     -11.438   7.122 -20.319  0.00  0.00    +0.003 C 
ATOM     19  C   UNL     1     -11.910   6.826 -18.744  0.00  0.00    +0.032 C 
ATOM     20  C   UNL     1     -12.259   5.573 -18.314  0.00  0.00    +0.127 C 
ATOM     21  C   UNL     1     -12.848   4.712 -19.392  0.00  0.00    +0.032 C 
ENDBRANCH  15  20
ENDBRANCH   1  15
TORSDOF 4
ENDMDL
MODEL 4
REMARK VINA RESULT:      -7.3      1.622      4.901
REMARK  Name = min_compound964.pdb
REMARK  4 active torsions:
REMARK  status: ('A' for Active; 'I' for Inactive)
REMARK    1  A    between atoms: _5  and  _7
REMARK    2  A    between atoms: _7  and  _9
REMARK    3  A    between atoms: _9  and  _10
REMARK    4  A    between atoms: _9  and  _16
REMARK                            x       y       z     vdW  Elec       q    Type
REMARK                         _______ _______ _______ _____ _____    ______ ____
ROOT
ATOM      1  P   UNL     1     -13.917   3.903 -17.314  0.00  0.00    +0.263 P 
ATOM      2  O   UNL     1     -15.186   4.684 -17.486  0.00  0.00    -0.281 OA
ENDROOT
BRANCH   1   3
ATOM      3  C   UNL     1     -13.174   4.936 -18.109  0.00  0.00    +0.041 A 
ATOM      4  C   UNL     1     -12.635   6.120 -17.541  0.00  0.00    +0.014 A 
ATOM      5  C   UNL     1     -11.957   7.097 -18.282  0.00  0.00    +0.001 A 
ATOM      6  C   UNL     1     -11.807   6.947 -19.652  0.00  0.00    +0.000 A 
ATOM      7  C   UNL     1     -12.350   5.834 -20.277  0.00  0.00    +0.001 A 
ATOM      8  C   UNL     1     -13.023   4.866 -19.520  0.00  0.00    +0.014 A 
ENDBRANCH   1   3
BRANCH   1   9
ATOM      9  C   UNL     1     -12.648   3.123 -17.142  0.00  0.00    +0.041 A 
ATOM     10  C   UNL     1     -11.723   3.373 -16.095  0.00  0.00    +0.014 A 
ATOM     11  C   UNL     1     -10.553   2.628 -15.900  0.00  0.00    +0.001 A 
ATOM     12  C   UNL     1     -10.260   1.567 -16.744  0.00  0.00    +0.000 A 
ATOM     13  C   UNL     1     -11.142   1.247 -17.766  0.00  0.00    +0.001 A 
ATOM     14  C   UNL     1     -12.309   2.001 -17.944  0.00  0.00    +0.014 A 
ENDBRANCH   1   9
BRANCH   1  15
ATOM     15  O   UNL     1     -14.660   2.871 -16.519  0.00  0.00    -0.318 OA
BRANCH  15  20
ATOM     16  C   UNL     1     -17.034   2.762 -13.324  0.00  0.00    +0.003 C 
ATOM     17  C   UNL     1     -16.351   3.915 -12.482  0.00  0.00    +0.000 C 
ATOM     18  C   UNL     1     -15.766   4.989 -13.350  0.00  0.00    +0.003 C 
ATOM     19  C   UNL     1     -14.766   3.956 -14.201  0.00  0.00    +0.032 C 
ATOM     20  C   UNL     1     -15.252   3.077 -15.132  0.00  0.00    +0.127 C 
ATOM     21  C   UNL     1     -16.650   2.615 -14.847  0.00  0.00    +0.032 C 
ENDBRANCH  15  20
ENDBRANCH   1  15
TORSDOF 4
ENDMDL
MODEL 5
REMARK VINA RESULT:      -7.1      1.958      5.552
REMARK  Name = min_compound964.pdb
REMARK  4 active torsions:
REMARK  status: ('A' for Active; 'I' for Inactive)
REMARK    1  A    between atoms: _5  and  _7
REMARK    2  A    between atoms: _7  and  _9
REMARK    3  A    between atoms: _9  and  _10
REMARK    4  A    between atoms: _9  and  _16
REMARK                            x       y       z     vdW  Elec       q    Type
REMARK                         _______ _______ _______ _____ _____    ______ ____
ROOT
ATOM      1  P   UNL     1     -13.271   4.298 -16.643  0.00  0.00    +0.263 P 
ATOM      2  O   UNL     1     -14.040   5.584 -16.715  0.00  0.00    -0.281 OA
ENDROOT
BRANCH   1   3
ATOM      3  C   UNL     1     -14.310   3.728 -15.724  0.00  0.00    +0.041 A 
ATOM      4  C   UNL     1     -15.148   2.636 -16.073  0.00  0.00    +0.014 A 
ATOM      5  C   UNL     1     -16.133   2.112 -15.225  0.00  0.00    +0.001 A 
ATOM      6  C   UNL     1     -16.349   2.681 -13.980  0.00  0.00    +0.000 A 
ATOM      7  C   UNL     1     -15.595   3.781 -13.595  0.00  0.00    +0.001 A 
ATOM      8  C   UNL     1     -14.613   4.290 -14.454  0.00  0.00    +0.014 A 
ENDBRANCH   1   3
BRANCH   1   9
ATOM      9  C   UNL     1     -12.503   3.012 -16.572  0.00  0.00    +0.041 A 
ATOM     10  C   UNL     1     -12.610   1.993 -17.554  0.00  0.00    +0.014 A 
ATOM     11  C   UNL     1     -11.871   0.803 -17.520  0.00  0.00    +0.001 A 
ATOM     12  C   UNL     1     -10.960   0.584 -16.497  0.00  0.00    +0.000 A 
ATOM     13  C   UNL     1     -10.781   1.558 -15.525  0.00  0.00    +0.001 A 
ATOM     14  C   UNL     1     -11.526   2.742 -15.577  0.00  0.00    +0.014 A 
ENDBRANCH   1   9
BRANCH   1  15
ATOM     15  O   UNL     1     -12.232   4.868 -17.563  0.00  0.00    -0.318 OA
BRANCH  15  20
ATOM     16  C   UNL     1     -13.450   5.757 -21.248  0.00  0.00    +0.003 C 
ATOM     17  C   UNL     1     -12.613   7.084 -21.461  0.00  0.00    +0.000 C 
ATOM     18  C   UNL     1     -11.297   7.051 -20.742  0.00  0.00    +0.003 C 
ATOM     19  C   UNL     1     -11.964   6.792 -19.233  0.00  0.00    +0.032 C 
ATOM     20  C   UNL     1     -12.508   5.586 -18.876  0.00  0.00    +0.127 C 
ATOM     21  C   UNL     1     -13.081   4.822 -20.032  0.00  0.00    +0.032 C 
ENDBRANCH  15  20
ENDBRANCH   1  15
TORSDOF 4
ENDMDL
MODEL 6
REMARK VINA RESULT:      -7.1      1.268      3.467
REMARK  Name = min_compound964.pdb
REMARK  4 active torsions:
REMARK  status: ('A' for Active; 'I' for Inactive)
REMARK    1  A    between atoms: _5  and  _7
REMARK    2  A    between atoms: _7  and  _9
REMARK    3  A    between atoms: _9  and  _10
REMARK    4  A    between atoms: _9  and  _16
REMARK                            x       y       z     vdW  Elec       q    Type
REMARK                         _______ _______ _______ _____ _____    ______ ____
ROOT
ATOM      1  P   UNL     1     -13.927   3.015 -16.739  0.00  0.00    +0.263 P 
ATOM      2  O   UNL     1     -14.586   1.919 -15.955  0.00  0.00    -0.281 OA
ENDROOT
BRANCH   1   3
ATOM      3  C   UNL     1     -14.763   4.032 -16.020  0.00  0.00    +0.041 A 
ATOM      4  C   UNL     1     -14.654   4.290 -14.628  0.00  0.00    +0.014 A 
ATOM      5  C   UNL     1     -15.445   5.225 -13.948  0.00  0.00    +0.001 A 
ATOM      6  C   UNL     1     -16.416   5.939 -14.633  0.00  0.00    +0.000 A 
ATOM      7  C   UNL     1     -16.605   5.702 -15.987  0.00  0.00    +0.001 A 
ATOM      8  C   UNL     1     -15.803   4.765 -16.651  0.00  0.00    +0.014 A 
ENDBRANCH   1   3
BRANCH   1   9
ATOM      9  C   UNL     1     -13.267   4.111 -17.523  0.00  0.00    +0.041 A 
ATOM     10  C   UNL     1     -13.523   4.336 -18.901  0.00  0.00    +0.014 A 
ATOM     11  C   UNL     1     -12.944   5.377 -19.636  0.00  0.00    +0.001 A 
ATOM     12  C   UNL     1     -12.085   6.270 -19.013  0.00  0.00    +0.000 A 
ATOM     13  C   UNL     1     -11.821   6.127 -17.658  0.00  0.00    +0.001 A 
ATOM     14  C   UNL     1     -12.412   5.081 -16.937  0.00  0.00    +0.014 A 
ENDBRANCH   1   9
BRANCH   1  15
ATOM     15  O   UNL     1     -13.091   1.998 -17.457  0.00  0.00    -0.318 OA
BRANCH  15  20
ATOM     16  C   UNL     1     -10.067   0.674 -15.230  0.00  0.00    +0.003 C 
ATOM     17  C   UNL     1      -9.784  -0.682 -15.997  0.00  0.00    +0.000 C 
ATOM     18  C   UNL     1     -10.074  -0.580 -17.465  0.00  0.00    +0.003 C 
ATOM     19  C   UNL     1     -11.668  -0.124 -17.265  0.00  0.00    +0.032 C 
ATOM     20  C   UNL     1     -12.016   1.126 -16.824  0.00  0.00    +0.127 C 
ATOM     21  C   UNL     1     -10.995   1.748 -15.920  0.00  0.00    +0.032 C 
ENDBRANCH  15  20
ENDBRANCH   1  15
TORSDOF 4
ENDMDL
MODEL 7
REMARK VINA RESULT:      -7.1     11.895     14.127
REMARK  Name = min_compound964.pdb
REMARK  4 active torsions:
REMARK  status: ('A' for Active; 'I' for Inactive)
REMARK    1  A    between atoms: _5  and  _7
REMARK    2  A    between atoms: _7  and  _9
REMARK    3  A    between atoms: _9  and  _10
REMARK    4  A    between atoms: _9  and  _16
REMARK                            x       y       z     vdW  Elec       q    Type
REMARK                         _______ _______ _______ _____ _____    ______ ____
ROOT
ATOM      1  P   UNL     1     -16.497  -0.749  -3.704  0.00  0.00    +0.263 P 
ATOM      2  O   UNL     1     -17.487  -1.876  -3.710  0.00  0.00    -0.281 OA
ENDROOT
BRANCH   1   3
ATOM      3  C   UNL     1     -16.729  -0.538  -5.171  0.00  0.00    +0.041 A 
ATOM      4  C   UNL     1     -17.986  -0.169  -5.718  0.00  0.00    +0.014 A 
ATOM      5  C   UNL     1     -18.213   0.011  -7.089  0.00  0.00    +0.001 A 
ATOM      6  C   UNL     1     -17.184  -0.201  -7.995  0.00  0.00    +0.000 A 
ATOM      7  C   UNL     1     -15.943  -0.608  -7.529  0.00  0.00    +0.001 A 
ATOM      8  C   UNL     1     -15.733  -0.780  -6.155  0.00  0.00    +0.014 A 
ENDBRANCH   1   3
BRANCH   1   9
ATOM      9  C   UNL     1     -15.508   0.379  -3.699  0.00  0.00    +0.041 A 
ATOM     10  C   UNL     1     -15.881   1.734  -3.900  0.00  0.00    +0.014 A 
ATOM     11  C   UNL     1     -14.974   2.801  -3.860  0.00  0.00    +0.001 A 
ATOM     12  C   UNL     1     -13.635   2.561  -3.591  0.00  0.00    +0.000 A 
ATOM     13  C   UNL     1     -13.212   1.261  -3.349  0.00  0.00    +0.001 A 
ATOM     14  C   UNL     1     -14.133   0.207  -3.390  0.00  0.00    +0.014 A 
ENDBRANCH   1   9
BRANCH   1  15
ATOM     15  O   UNL     1     -16.266  -0.959  -2.237  0.00  0.00    -0.318 OA
BRANCH  15  20
ATOM     16  C   UNL     1     -15.451  -3.870   0.355  0.00  0.00    +0.003 C 
ATOM     17  C   UNL     1     -14.367  -4.649  -0.497  0.00  0.00    +0.000 C 
ATOM     18  C   UNL     1     -13.564  -3.735  -1.374  0.00  0.00    +0.003 C 
ATOM     19  C   UNL     1     -14.887  -3.118  -2.186  0.00  0.00    +0.032 C 
ATOM     20  C   UNL     1     -15.759  -2.242  -1.594  0.00  0.00    +0.127 C 
ATOM     21  C   UNL     1     -15.875  -2.423  -0.110  0.00  0.00    +0.032 C 
ENDBRANCH  15  20
ENDBRANCH   1  15
TORSDOF 4
ENDMDL
MODEL 8
REMARK VINA RESULT:      -6.8      1.730      4.918
REMARK  Name = min_compound964.pdb
REMARK  4 active torsions:
REMARK  status: ('A' for Active; 'I' for Inactive)
REMARK    1  A    between atoms: _5  and  _7
REMARK    2  A    between atoms: _7  and  _9
REMARK    3  A    between atoms: _9  and  _10
REMARK    4  A    between atoms: _9  and  _16
REMARK                            x       y       z     vdW  Elec       q    Type
REMARK                         _______ _______ _______ _____ _____    ______ ____
ROOT
ATOM      1  P   UNL     1     -14.193   4.066 -16.492  0.00  0.00    +0.263 P 
ATOM      2  O   UNL     1     -15.382   4.959 -16.687  0.00  0.00    -0.281 OA
ENDROOT
BRANCH   1   3
ATOM      3  C   UNL     1     -13.412   4.891 -17.471  0.00  0.00    +0.041 A 
ATOM      4  C   UNL     1     -12.906   6.184 -17.174  0.00  0.00    +0.014 A 
ATOM      5  C   UNL     1     -12.192   6.967 -18.091  0.00  0.00    +0.001 A 
ATOM      6  C   UNL     1     -11.971   6.498 -19.377  0.00  0.00    +0.000 A 
ATOM      7  C   UNL     1     -12.480   5.261 -19.746  0.00  0.00    +0.001 A 
ATOM      8  C   UNL     1     -13.189   4.491 -18.816  0.00  0.00    +0.014 A 
ENDBRANCH   1   3
BRANCH   1   9
ATOM      9  C   UNL     1     -13.004   3.173 -16.296  0.00  0.00    +0.041 A 
ATOM     10  C   UNL     1     -13.007   1.796 -16.642  0.00  0.00    +0.014 A 
ATOM     11  C   UNL     1     -11.893   0.959 -16.501  0.00  0.00    +0.001 A 
ATOM     12  C   UNL     1     -10.698   1.473 -16.018  0.00  0.00    +0.000 A 
ATOM     13  C   UNL     1     -10.619   2.820 -15.696  0.00  0.00    +0.001 A 
ATOM     14  C   UNL     1     -11.742   3.643 -15.847  0.00  0.00    +0.014 A 
ENDBRANCH   1   9
BRANCH   1  15
ATOM     15  O   UNL     1     -14.974   3.241 -15.512  0.00  0.00    -0.318 OA
BRANCH  15  20
ATOM     16  C   UNL     1     -15.679   5.072 -12.047  0.00  0.00    +0.003 C 
ATOM     17  C   UNL     1     -17.040   4.355 -11.673  0.00  0.00    +0.000 C 
ATOM     18  C   UNL     1     -17.098   2.942 -12.173  0.00  0.00    +0.003 C 
ATOM     19  C   UNL     1     -16.854   3.348 -13.775  0.00  0.00    +0.032 C 
ATOM     20  C   UNL     1     -15.634   3.760 -14.242  0.00  0.00    +0.127 C 
ATOM     21  C   UNL     1     -14.804   4.464 -13.211  0.00  0.00    +0.032 C 
ENDBRANCH  15  20
ENDBRANCH   1  15
TORSDOF 4
ENDMDL
MODEL 9
REMARK VINA RESULT:      -6.8      1.596      5.872
REMARK  Name = min_compound964.pdb
REMARK  4 active torsions:
REMARK  status: ('A' for Active; 'I' for Inactive)
REMARK    1  A    between atoms: _5  and  _7
REMARK    2  A    between atoms: _7  and  _9
REMARK    3  A    between atoms: _9  and  _10
REMARK    4  A    between atoms: _9  and  _16
REMARK                            x       y       z     vdW  Elec       q    Type
REMARK                         _______ _______ _______ _____ _____    ______ ____
ROOT
ATOM      1  P   UNL     1     -13.739   2.563 -16.592  0.00  0.00    +0.263 P 
ATOM      2  O   UNL     1     -14.382   1.439 -15.835  0.00  0.00    -0.281 OA
ENDROOT
BRANCH   1   3
ATOM      3  C   UNL     1     -12.454   1.791 -16.647  0.00  0.00    +0.041 A 
ATOM      4  C   UNL     1     -11.424   1.919 -15.679  0.00  0.00    +0.014 A 
ATOM      5  C   UNL     1     -10.214   1.215 -15.736  0.00  0.00    +0.001 A 
ATOM      6  C   UNL     1      -9.962   0.356 -16.795  0.00  0.00    +0.000 A 
ATOM      7  C   UNL     1     -10.909   0.220 -17.799  0.00  0.00    +0.001 A 
ATOM      8  C   UNL     1     -12.114   0.930 -17.725  0.00  0.00    +0.014 A 
ENDBRANCH   1   3
BRANCH   1   9
ATOM      9  C   UNL     1     -13.097   3.687 -17.349  0.00  0.00    +0.041 A 
ATOM     10  C   UNL     1     -13.416   3.991 -18.698  0.00  0.00    +0.014 A 
ATOM     11  C   UNL     1     -12.853   5.060 -19.406  0.00  0.00    +0.001 A 
ATOM     12  C   UNL     1     -11.944   5.902 -18.781  0.00  0.00    +0.000 A 
ATOM     13  C   UNL     1     -11.616   5.680 -17.451  0.00  0.00    +0.001 A 
ATOM     14  C   UNL     1     -12.192   4.608 -16.758  0.00  0.00    +0.014 A 
ENDBRANCH   1   9
BRANCH   1  15
ATOM     15  O   UNL     1     -15.024   3.335 -16.536  0.00  0.00    -0.318 OA
BRANCH  15  20
ATOM     16  C   UNL     1     -16.151   6.468 -14.352  0.00  0.00    +0.003 C 
ATOM     17  C   UNL     1     -16.006   5.820 -12.915  0.00  0.00    +0.000 C 
ATOM     18  C   UNL     1     -14.901   4.807 -12.853  0.00  0.00    +0.003 C 
ATOM     19  C   UNL     1     -15.516   3.849 -14.075  0.00  0.00    +0.032 C 
ATOM     20  C   UNL     1     -15.472   4.231 -15.390  0.00  0.00    +0.127 C 
ATOM     21  C   UNL     1     -15.511   5.717 -15.584  0.00  0.00    +0.032 C 
ENDBRANCH  15  20
ENDBRANCH   1  15
TORSDOF 4
ENDMDL
