MODEL 1
REMARK VINA RESULT:      -5.4      0.000      0.000
REMARK  Name = min_compound4.pdb
REMARK  5 active torsions:
REMARK  status: ('A' for Active; 'I' for Inactive)
REMARK    1  A    between atoms: _3  and  _7
REMARK    2  A    between atoms: _7  and  _8
REMARK    3  A    between atoms: _8  and  _9
REMARK    4  A    between atoms: _9  and  _10
REMARK    5  A    between atoms: _10  and  _11
REMARK                            x       y       z     vdW  Elec       q    Type
REMARK                         _______ _______ _______ _____ _____    ______ ____
ROOT
ATOM      1  N   UNL     1     -11.818   4.562 -17.505  0.00  0.00    -0.263 NA
ATOM      2  C   UNL     1     -10.826   4.808 -16.626  0.00  0.00    +0.111 A 
ATOM      3  C   UNL     1     -10.433   3.915 -15.644  0.00  0.00    +0.020 A 
ATOM      4  C   UNL     1     -11.095   2.693 -15.554  0.00  0.00    +0.006 A 
ATOM      5  C   UNL     1     -12.127   2.391 -16.446  0.00  0.00    -0.029 A 
ATOM      6  C   UNL     1     -12.441   3.366 -17.392  0.00  0.00    +0.114 A 
ENDROOT
BRANCH   5   7
ATOM      7  C   UNL     1     -12.919   1.108 -16.435  0.00  0.00    +0.036 C 
BRANCH   7   8
ATOM      8  C   UNL     1     -12.128  -0.190 -16.632  0.00  0.00    +0.005 C 
BRANCH   8   9
ATOM      9  C   UNL     1     -11.089  -0.042 -17.746  0.00  0.00    +0.000 C 
BRANCH   9  10
ATOM     10  C   UNL     1      -9.730  -0.594 -17.314  0.00  0.00    -0.003 C 
ATOM     11  C   UNL     1      -9.683  -0.854 -15.817  0.00  0.00    +0.004 C 
ENDBRANCH   9  10
ENDBRANCH   8   9
ENDBRANCH   7   8
ENDBRANCH   5   7
TORSDOF 4
ENDMDL
MODEL 2
REMARK VINA RESULT:      -5.4      1.812      4.702
REMARK  Name = min_compound4.pdb
REMARK  5 active torsions:
REMARK  status: ('A' for Active; 'I' for Inactive)
REMARK    1  A    between atoms: _3  and  _7
REMARK    2  A    between atoms: _7  and  _8
REMARK    3  A    between atoms: _8  and  _9
REMARK    4  A    between atoms: _9  and  _10
REMARK    5  A    between atoms: _10  and  _11
REMARK                            x       y       z     vdW  Elec       q    Type
REMARK                         _______ _______ _______ _____ _____    ______ ____
ROOT
ATOM      1  N   UNL     1     -10.835  -0.074 -17.978  0.00  0.00    -0.263 NA
ATOM      2  C   UNL     1     -10.045  -0.893 -17.254  0.00  0.00    +0.111 A 
ATOM      3  C   UNL     1      -9.641  -0.619 -15.959  0.00  0.00    +0.020 A 
ATOM      4  C   UNL     1     -10.071   0.565 -15.364  0.00  0.00    +0.006 A 
ATOM      5  C   UNL     1     -10.895   1.443 -16.074  0.00  0.00    -0.029 A 
ATOM      6  C   UNL     1     -11.236   1.068 -17.372  0.00  0.00    +0.114 A 
ENDROOT
BRANCH   5   7
ATOM      7  C   UNL     1     -11.410   2.755 -15.537  0.00  0.00    +0.036 C 
BRANCH   7   8
ATOM      8  C   UNL     1     -10.411   3.916 -15.485  0.00  0.00    +0.005 C 
BRANCH   8   9
ATOM      9  C   UNL     1     -10.444   4.734 -16.779  0.00  0.00    +0.000 C 
BRANCH   9  10
ATOM     10  C   UNL     1     -11.877   5.089 -17.175  0.00  0.00    -0.003 C 
ATOM     11  C   UNL     1     -11.954   6.468 -17.812  0.00  0.00    +0.004 C 
ENDBRANCH   9  10
ENDBRANCH   8   9
ENDBRANCH   7   8
ENDBRANCH   5   7
TORSDOF 4
ENDMDL
MODEL 3
REMARK VINA RESULT:      -5.2      1.843      4.234
REMARK  Name = min_compound4.pdb
REMARK  5 active torsions:
REMARK  status: ('A' for Active; 'I' for Inactive)
REMARK    1  A    between atoms: _3  and  _7
REMARK    2  A    between atoms: _7  and  _8
REMARK    3  A    between atoms: _8  and  _9
REMARK    4  A    between atoms: _9  and  _10
REMARK    5  A    between atoms: _10  and  _11
REMARK                            x       y       z     vdW  Elec       q    Type
REMARK                         _______ _______ _______ _____ _____    ______ ____
ROOT
ATOM      1  N   UNL     1      -9.193   0.131 -17.123  0.00  0.00    -0.263 NA
ATOM      2  C   UNL     1      -9.690  -0.857 -16.353  0.00  0.00    +0.111 A 
ATOM      3  C   UNL     1     -11.042  -1.037 -16.116  0.00  0.00    +0.020 A 
ATOM      4  C   UNL     1     -11.943  -0.152 -16.704  0.00  0.00    +0.006 A 
ATOM      5  C   UNL     1     -11.474   0.886 -17.515  0.00  0.00    -0.029 A 
ATOM      6  C   UNL     1     -10.093   0.974 -17.681  0.00  0.00    +0.114 A 
ENDROOT
BRANCH   5   7
ATOM      7  C   UNL     1     -12.354   1.907 -18.191  0.00  0.00    +0.036 C 
BRANCH   7   8
ATOM      8  C   UNL     1     -12.291   3.338 -17.645  0.00  0.00    +0.005 C 
BRANCH   8   9
ATOM      9  C   UNL     1     -12.486   3.361 -16.127  0.00  0.00    +0.000 C 
BRANCH   9  10
ATOM     10  C   UNL     1     -11.183   3.701 -15.404  0.00  0.00    -0.003 C 
ATOM     11  C   UNL     1     -10.225   4.461 -16.309  0.00  0.00    +0.004 C 
ENDBRANCH   9  10
ENDBRANCH   8   9
ENDBRANCH   7   8
ENDBRANCH   5   7
TORSDOF 4
ENDMDL
MODEL 4
REMARK VINA RESULT:      -5.1     11.112     12.066
REMARK  Name = min_compound4.pdb
REMARK  5 active torsions:
REMARK  status: ('A' for Active; 'I' for Inactive)
REMARK    1  A    between atoms: _3  and  _7
REMARK    2  A    between atoms: _7  and  _8
REMARK    3  A    between atoms: _8  and  _9
REMARK    4  A    between atoms: _9  and  _10
REMARK    5  A    between atoms: _10  and  _11
REMARK                            x       y       z     vdW  Elec       q    Type
REMARK                         _______ _______ _______ _____ _____    ______ ____
ROOT
ATOM      1  N   UNL     1     -17.256  -0.226  -7.472  0.00  0.00    -0.263 NA
ATOM      2  C   UNL     1     -17.077   0.918  -8.162  0.00  0.00    +0.111 A 
ATOM      3  C   UNL     1     -15.921   1.677  -8.100  0.00  0.00    +0.020 A 
ATOM      4  C   UNL     1     -14.881   1.240  -7.283  0.00  0.00    +0.006 A 
ATOM      5  C   UNL     1     -15.019   0.056  -6.552  0.00  0.00    -0.029 A 
ATOM      6  C   UNL     1     -16.228  -0.625  -6.687  0.00  0.00    +0.114 A 
ENDROOT
BRANCH   5   7
ATOM      7  C   UNL     1     -13.967  -0.506  -5.629  0.00  0.00    +0.036 C 
BRANCH   7   8
ATOM      8  C   UNL     1     -14.437  -0.940  -4.235  0.00  0.00    +0.005 C 
BRANCH   8   9
ATOM      9  C   UNL     1     -14.575   0.262  -3.298  0.00  0.00    +0.000 C 
BRANCH   9  10
ATOM     10  C   UNL     1     -13.314   1.127  -3.312  0.00  0.00    -0.003 C 
ATOM     11  C   UNL     1     -13.637   2.578  -3.629  0.00  0.00    +0.004 C 
ENDBRANCH   9  10
ENDBRANCH   8   9
ENDBRANCH   7   8
ENDBRANCH   5   7
TORSDOF 4
ENDMDL
MODEL 5
REMARK VINA RESULT:      -4.9      2.384      4.641
REMARK  Name = min_compound4.pdb
REMARK  5 active torsions:
REMARK  status: ('A' for Active; 'I' for Inactive)
REMARK    1  A    between atoms: _3  and  _7
REMARK    2  A    between atoms: _7  and  _8
REMARK    3  A    between atoms: _8  and  _9
REMARK    4  A    between atoms: _9  and  _10
REMARK    5  A    between atoms: _10  and  _11
REMARK                            x       y       z     vdW  Elec       q    Type
REMARK                         _______ _______ _______ _____ _____    ______ ____
ROOT
ATOM      1  N   UNL     1      -9.714   1.327 -17.487  0.00  0.00    -0.263 NA
ATOM      2  C   UNL     1      -9.529   0.001 -17.327  0.00  0.00    +0.111 A 
ATOM      3  C   UNL     1     -10.516  -0.861 -16.882  0.00  0.00    +0.020 A 
ATOM      4  C   UNL     1     -11.771  -0.337 -16.581  0.00  0.00    +0.006 A 
ATOM      5  C   UNL     1     -12.011   1.031 -16.736  0.00  0.00    -0.029 A 
ATOM      6  C   UNL     1     -10.943   1.806 -17.188  0.00  0.00    +0.114 A 
ENDROOT
BRANCH   5   7
ATOM      7  C   UNL     1     -13.323   1.709 -16.431  0.00  0.00    +0.036 C 
BRANCH   7   8
ATOM      8  C   UNL     1     -13.246   3.098 -15.786  0.00  0.00    +0.005 C 
BRANCH   8   9
ATOM      9  C   UNL     1     -14.613   3.541 -15.258  0.00  0.00    +0.000 C 
BRANCH   9  10
ATOM     10  C   UNL     1     -15.609   2.381 -15.253  0.00  0.00    -0.003 C 
ATOM     11  C   UNL     1     -16.633   2.531 -14.139  0.00  0.00    +0.004 C 
ENDBRANCH   9  10
ENDBRANCH   8   9
ENDBRANCH   7   8
ENDBRANCH   5   7
TORSDOF 4
ENDMDL
MODEL 6
REMARK VINA RESULT:      -4.8      1.483      2.460
REMARK  Name = min_compound4.pdb
REMARK  5 active torsions:
REMARK  status: ('A' for Active; 'I' for Inactive)
REMARK    1  A    between atoms: _3  and  _7
REMARK    2  A    between atoms: _7  and  _8
REMARK    3  A    between atoms: _8  and  _9
REMARK    4  A    between atoms: _9  and  _10
REMARK    5  A    between atoms: _10  and  _11
REMARK                            x       y       z     vdW  Elec       q    Type
REMARK                         _______ _______ _______ _____ _____    ______ ____
ROOT
ATOM      1  N   UNL     1     -12.909   5.543 -17.369  0.00  0.00    -0.263 NA
ATOM      2  C   UNL     1     -14.048   5.133 -16.775  0.00  0.00    +0.111 A 
ATOM      3  C   UNL     1     -14.107   4.086 -15.872  0.00  0.00    +0.020 A 
ATOM      4  C   UNL     1     -12.928   3.415 -15.554  0.00  0.00    +0.006 A 
ATOM      5  C   UNL     1     -11.722   3.808 -16.140  0.00  0.00    -0.029 A 
ATOM      6  C   UNL     1     -11.781   4.872 -17.039  0.00  0.00    +0.114 A 
ENDROOT
BRANCH   5   7
ATOM      7  C   UNL     1     -10.390   3.149 -15.881  0.00  0.00    +0.036 C 
BRANCH   7   8
ATOM      8  C   UNL     1     -10.399   1.627 -15.698  0.00  0.00    +0.005 C 
BRANCH   8   9
ATOM      9  C   UNL     1      -9.988   0.911 -16.987  0.00  0.00    +0.000 C 
BRANCH   9  10
ATOM     10  C   UNL     1     -11.190   0.254 -17.666  0.00  0.00    -0.003 C 
ATOM     11  C   UNL     1     -12.233  -0.184 -16.650  0.00  0.00    +0.004 C 
ENDBRANCH   9  10
ENDBRANCH   8   9
ENDBRANCH   7   8
ENDBRANCH   5   7
TORSDOF 4
ENDMDL
MODEL 7
REMARK VINA RESULT:      -4.7     11.990     12.731
REMARK  Name = min_compound4.pdb
REMARK  5 active torsions:
REMARK  status: ('A' for Active; 'I' for Inactive)
REMARK    1  A    between atoms: _3  and  _7
REMARK    2  A    between atoms: _7  and  _8
REMARK    3  A    between atoms: _8  and  _9
REMARK    4  A    between atoms: _9  and  _10
REMARK    5  A    between atoms: _10  and  _11
REMARK                            x       y       z     vdW  Elec       q    Type
REMARK                         _______ _______ _______ _____ _____    ______ ____
ROOT
ATOM      1  N   UNL     1     -14.725   3.069  -3.862  0.00  0.00    -0.263 NA
ATOM      2  C   UNL     1     -13.497   2.650  -3.497  0.00  0.00    +0.111 A 
ATOM      3  C   UNL     1     -13.177   1.323  -3.271  0.00  0.00    +0.020 A 
ATOM      4  C   UNL     1     -14.173   0.362  -3.428  0.00  0.00    +0.006 A 
ATOM      5  C   UNL     1     -15.461   0.749  -3.810  0.00  0.00    -0.029 A 
ATOM      6  C   UNL     1     -15.671   2.113  -4.008  0.00  0.00    +0.114 A 
ENDROOT
BRANCH   5   7
ATOM      7  C   UNL     1     -16.618  -0.200  -3.999  0.00  0.00    +0.036 C 
BRANCH   7   8
ATOM      8  C   UNL     1     -17.133  -0.380  -5.432  0.00  0.00    +0.005 C 
BRANCH   8   9
ATOM      9  C   UNL     1     -16.006  -0.800  -6.378  0.00  0.00    +0.000 C 
BRANCH   9  10
ATOM     10  C   UNL     1     -15.686   0.304  -7.387  0.00  0.00    -0.003 C 
ATOM     11  C   UNL     1     -14.285   0.858  -7.183  0.00  0.00    +0.004 C 
ENDBRANCH   9  10
ENDBRANCH   8   9
ENDBRANCH   7   8
ENDBRANCH   5   7
TORSDOF 4
ENDMDL
MODEL 8
REMARK VINA RESULT:      -4.7      2.795      3.533
REMARK  Name = min_compound4.pdb
REMARK  5 active torsions:
REMARK  status: ('A' for Active; 'I' for Inactive)
REMARK    1  A    between atoms: _3  and  _7
REMARK    2  A    between atoms: _7  and  _8
REMARK    3  A    between atoms: _8  and  _9
REMARK    4  A    between atoms: _9  and  _10
REMARK    5  A    between atoms: _10  and  _11
REMARK                            x       y       z     vdW  Elec       q    Type
REMARK                         _______ _______ _______ _____ _____    ______ ____
ROOT
ATOM      1  N   UNL     1     -14.872   4.347 -14.175  0.00  0.00    -0.263 NA
ATOM      2  C   UNL     1     -16.020   3.711 -13.866  0.00  0.00    +0.111 A 
ATOM      3  C   UNL     1     -16.428   2.533 -14.466  0.00  0.00    +0.020 A 
ATOM      4  C   UNL     1     -15.612   1.967 -15.443  0.00  0.00    +0.006 A 
ATOM      5  C   UNL     1     -14.410   2.588 -15.793  0.00  0.00    -0.029 A 
ATOM      6  C   UNL     1     -14.101   3.773 -15.126  0.00  0.00    +0.114 A 
ENDROOT
BRANCH   5   7
ATOM      7  C   UNL     1     -13.455   2.074 -16.842  0.00  0.00    +0.036 C 
BRANCH   7   8
ATOM      8  C   UNL     1     -12.154   1.440 -16.336  0.00  0.00    +0.005 C 
BRANCH   8   9
ATOM      9  C   UNL     1     -12.070  -0.038 -16.723  0.00  0.00    +0.000 C 
BRANCH   9  10
ATOM     10  C   UNL     1     -10.644  -0.431 -17.111  0.00  0.00    -0.003 C 
ATOM     11  C   UNL     1      -9.795  -0.727 -15.885  0.00  0.00    +0.004 C 
ENDBRANCH   9  10
ENDBRANCH   8   9
ENDBRANCH   7   8
ENDBRANCH   5   7
TORSDOF 4
ENDMDL
MODEL 9
REMARK VINA RESULT:      -4.5     13.962     14.598
REMARK  Name = min_compound4.pdb
REMARK  5 active torsions:
REMARK  status: ('A' for Active; 'I' for Inactive)
REMARK    1  A    between atoms: _3  and  _7
REMARK    2  A    between atoms: _7  and  _8
REMARK    3  A    between atoms: _8  and  _9
REMARK    4  A    between atoms: _9  and  _10
REMARK    5  A    between atoms: _10  and  _11
REMARK                            x       y       z     vdW  Elec       q    Type
REMARK                         _______ _______ _______ _____ _____    ______ ____
ROOT
ATOM      1  N   UNL     1     -15.870   2.131  -3.973  0.00  0.00    -0.263 NA
ATOM      2  C   UNL     1     -14.678   2.753  -3.874  0.00  0.00    +0.111 A 
ATOM      3  C   UNL     1     -13.508   2.113  -3.504  0.00  0.00    +0.020 A 
ATOM      4  C   UNL     1     -13.557   0.751  -3.218  0.00  0.00    +0.006 A 
ATOM      5  C   UNL     1     -14.769   0.062  -3.312  0.00  0.00    -0.029 A 
ATOM      6  C   UNL     1     -15.885   0.808  -3.690  0.00  0.00    +0.114 A 
ENDROOT
BRANCH   5   7
ATOM      7  C   UNL     1     -14.943  -1.407  -3.016  0.00  0.00    +0.036 C 
BRANCH   7   8
ATOM      8  C   UNL     1     -15.681  -1.764  -1.720  0.00  0.00    +0.005 C 
BRANCH   8   9
ATOM      9  C   UNL     1     -14.946  -2.864  -0.950  0.00  0.00    +0.000 C 
BRANCH   9  10
ATOM     10  C   UNL     1     -13.533  -3.076  -1.494  0.00  0.00    -0.003 C 
ATOM     11  C   UNL     1     -12.992  -4.447  -1.120  0.00  0.00    +0.004 C 
ENDBRANCH   9  10
ENDBRANCH   8   9
ENDBRANCH   7   8
ENDBRANCH   5   7
TORSDOF 4
ENDMDL
