MODEL 1
REMARK VINA RESULT:      -5.4      0.000      0.000
REMARK  Name = min_compound93.pdb
REMARK  6 active torsions:
REMARK  status: ('A' for Active; 'I' for Inactive)
REMARK    1  A    between atoms: _3  and  _7
REMARK    2  A    between atoms: _7  and  _9
REMARK    3  A    between atoms: _9  and  _10
REMARK    4  A    between atoms: _10  and  _11
REMARK    5  A    between atoms: _11  and  _12
REMARK    6  A    between atoms: _12  and  _13
REMARK                            x       y       z     vdW  Elec       q    Type
REMARK                         _______ _______ _______ _____ _____    ______ ____
ROOT
ATOM      1  C   UNL     1     -12.609   1.579 -18.243  0.00  0.00    +0.341 C 
ATOM      2  O   UNL     1     -12.681   1.699 -19.456  0.00  0.00    -0.245 OA
ENDROOT
BRANCH   1   7
ATOM      3  N   UNL     1      -9.267   0.198 -17.158  0.00  0.00    -0.262 NA
ATOM      4  C   UNL     1      -9.688  -0.762 -16.305  0.00  0.00    +0.111 A 
ATOM      5  C   UNL     1     -11.024  -1.023 -16.038  0.00  0.00    +0.020 A 
ATOM      6  C   UNL     1     -11.988  -0.250 -16.681  0.00  0.00    +0.018 A 
ATOM      7  C   UNL     1     -11.589   0.748 -17.573  0.00  0.00    +0.077 A 
ATOM      8  C   UNL     1     -10.228   0.933 -17.774  0.00  0.00    +0.125 A 
ENDBRANCH   1   7
BRANCH   1   9
ATOM      9  O   UNL     1     -13.402   2.189 -17.328  0.00  0.00    -0.461 OA
BRANCH   9  10
ATOM     10  C   UNL     1     -13.032   3.531 -16.974  0.00  0.00    +0.232 C 
BRANCH  10  11
ATOM     11  C   UNL     1     -12.584   3.606 -15.516  0.00  0.00    +0.041 C 
BRANCH  11  12
ATOM     12  C   UNL     1     -11.064   3.531 -15.397  0.00  0.00    -0.000 C 
ATOM     13  C   UNL     1     -10.378   4.461 -16.384  0.00  0.00    +0.004 C 
ENDBRANCH  11  12
ENDBRANCH  10  11
ENDBRANCH   9  10
ENDBRANCH   1   9
TORSDOF 5
ENDMDL
MODEL 2
REMARK VINA RESULT:      -5.2      2.432      3.336
REMARK  Name = min_compound93.pdb
REMARK  6 active torsions:
REMARK  status: ('A' for Active; 'I' for Inactive)
REMARK    1  A    between atoms: _3  and  _7
REMARK    2  A    between atoms: _7  and  _9
REMARK    3  A    between atoms: _9  and  _10
REMARK    4  A    between atoms: _10  and  _11
REMARK    5  A    between atoms: _11  and  _12
REMARK    6  A    between atoms: _12  and  _13
REMARK                            x       y       z     vdW  Elec       q    Type
REMARK                         _______ _______ _______ _____ _____    ______ ____
ROOT
ATOM      1  C   UNL     1     -12.286   3.219 -16.053  0.00  0.00    +0.341 C 
ATOM      2  O   UNL     1     -11.863   4.110 -16.773  0.00  0.00    -0.245 OA
ENDROOT
BRANCH   1   7
ATOM      3  N   UNL     1     -12.118  -0.489 -16.747  0.00  0.00    -0.262 NA
ATOM      4  C   UNL     1     -10.878  -0.748 -16.275  0.00  0.00    +0.111 A 
ATOM      5  C   UNL     1     -10.049   0.214 -15.719  0.00  0.00    +0.020 A 
ATOM      6  C   UNL     1     -10.516   1.524 -15.644  0.00  0.00    +0.018 A 
ATOM      7  C   UNL     1     -11.795   1.828 -16.117  0.00  0.00    +0.077 A 
ATOM      8  C   UNL     1     -12.550   0.795 -16.657  0.00  0.00    +0.125 A 
ENDBRANCH   1   7
BRANCH   1   9
ATOM      9  O   UNL     1     -13.223   3.348 -15.083  0.00  0.00    -0.461 OA
BRANCH   9  10
ATOM     10  C   UNL     1     -14.435   4.016 -15.468  0.00  0.00    +0.232 C 
BRANCH  10  11
ATOM     11  C   UNL     1     -15.413   3.040 -16.117  0.00  0.00    +0.041 C 
BRANCH  11  12
ATOM     12  C   UNL     1     -15.908   1.999 -15.116  0.00  0.00    -0.000 C 
ATOM     13  C   UNL     1     -16.677   2.643 -13.973  0.00  0.00    +0.004 C 
ENDBRANCH  11  12
ENDBRANCH  10  11
ENDBRANCH   9  10
ENDBRANCH   1   9
TORSDOF 5
ENDMDL
MODEL 3
REMARK VINA RESULT:      -5.1      2.275      2.976
REMARK  Name = min_compound93.pdb
REMARK  6 active torsions:
REMARK  status: ('A' for Active; 'I' for Inactive)
REMARK    1  A    between atoms: _3  and  _7
REMARK    2  A    between atoms: _7  and  _9
REMARK    3  A    between atoms: _9  and  _10
REMARK    4  A    between atoms: _10  and  _11
REMARK    5  A    between atoms: _11  and  _12
REMARK    6  A    between atoms: _12  and  _13
REMARK                            x       y       z     vdW  Elec       q    Type
REMARK                         _______ _______ _______ _____ _____    ______ ____
ROOT
ATOM      1  C   UNL     1     -12.018   3.140 -15.609  0.00  0.00    +0.341 C 
ATOM      2  O   UNL     1     -13.125   3.437 -15.191  0.00  0.00    -0.245 OA
ENDROOT
BRANCH   1   7
ATOM      3  N   UNL     1     -12.058  -0.412 -16.891  0.00  0.00    -0.262 NA
ATOM      4  C   UNL     1     -10.843  -0.818 -16.461  0.00  0.00    +0.111 A 
ATOM      5  C   UNL     1      -9.967  -0.010 -15.752  0.00  0.00    +0.020 A 
ATOM      6  C   UNL     1     -10.357   1.297 -15.469  0.00  0.00    +0.018 A 
ATOM      7  C   UNL     1     -11.609   1.750 -15.893  0.00  0.00    +0.077 A 
ATOM      8  C   UNL     1     -12.415   0.865 -16.597  0.00  0.00    +0.125 A 
ENDBRANCH   1   7
BRANCH   1   9
ATOM      9  O   UNL     1     -11.014   4.000 -15.905  0.00  0.00    -0.461 OA
BRANCH   9  10
ATOM     10  C   UNL     1     -10.769   4.221 -17.303  0.00  0.00    +0.232 C 
BRANCH  10  11
ATOM     11  C   UNL     1     -11.962   4.909 -17.963  0.00  0.00    +0.041 C 
BRANCH  11  12
ATOM     12  C   UNL     1     -11.952   6.413 -17.698  0.00  0.00    -0.000 C 
ATOM     13  C   UNL     1     -11.842   7.208 -18.989  0.00  0.00    +0.004 C 
ENDBRANCH  11  12
ENDBRANCH  10  11
ENDBRANCH   9  10
ENDBRANCH   1   9
TORSDOF 5
ENDMDL
MODEL 4
REMARK VINA RESULT:      -5.0      1.891      2.250
REMARK  Name = min_compound93.pdb
REMARK  6 active torsions:
REMARK  status: ('A' for Active; 'I' for Inactive)
REMARK    1  A    between atoms: _3  and  _7
REMARK    2  A    between atoms: _7  and  _9
REMARK    3  A    between atoms: _9  and  _10
REMARK    4  A    between atoms: _10  and  _11
REMARK    5  A    between atoms: _11  and  _12
REMARK    6  A    between atoms: _12  and  _13
REMARK                            x       y       z     vdW  Elec       q    Type
REMARK                         _______ _______ _______ _____ _____    ______ ____
ROOT
ATOM      1  C   UNL     1     -12.334   2.174 -17.737  0.00  0.00    +0.341 C 
ATOM      2  O   UNL     1     -12.899   1.940 -18.793  0.00  0.00    -0.245 OA
ENDROOT
BRANCH   1   7
ATOM      3  N   UNL     1      -9.924   0.649 -15.263  0.00  0.00    -0.262 NA
ATOM      4  C   UNL     1      -9.674  -0.523 -15.888  0.00  0.00    +0.111 A 
ATOM      5  C   UNL     1     -10.236  -0.882 -17.103  0.00  0.00    +0.020 A 
ATOM      6  C   UNL     1     -11.114   0.010 -17.715  0.00  0.00    +0.018 A 
ATOM      7  C   UNL     1     -11.392   1.233 -17.099  0.00  0.00    +0.077 A 
ATOM      8  C   UNL     1     -10.779   1.502 -15.883  0.00  0.00    +0.125 A 
ENDBRANCH   1   7
BRANCH   1   9
ATOM      9  O   UNL     1     -12.441   3.309 -17.005  0.00  0.00    -0.461 OA
BRANCH   9  10
ATOM     10  C   UNL     1     -12.702   4.511 -17.747  0.00  0.00    +0.232 C 
BRANCH  10  11
ATOM     11  C   UNL     1     -11.649   5.576 -17.447  0.00  0.00    +0.041 C 
BRANCH  11  12
ATOM     12  C   UNL     1     -12.002   6.908 -18.106  0.00  0.00    -0.000 C 
ATOM     13  C   UNL     1     -13.466   7.262 -17.902  0.00  0.00    +0.004 C 
ENDBRANCH  11  12
ENDBRANCH  10  11
ENDBRANCH   9  10
ENDBRANCH   1   9
TORSDOF 5
ENDMDL
MODEL 5
REMARK VINA RESULT:      -4.9      2.703      5.277
REMARK  Name = min_compound93.pdb
REMARK  6 active torsions:
REMARK  status: ('A' for Active; 'I' for Inactive)
REMARK    1  A    between atoms: _3  and  _7
REMARK    2  A    between atoms: _7  and  _9
REMARK    3  A    between atoms: _9  and  _10
REMARK    4  A    between atoms: _10  and  _11
REMARK    5  A    between atoms: _11  and  _12
REMARK    6  A    between atoms: _12  and  _13
REMARK                            x       y       z     vdW  Elec       q    Type
REMARK                         _______ _______ _______ _____ _____    ______ ____
ROOT
ATOM      1  C   UNL     1     -11.108   3.083 -16.334  0.00  0.00    +0.341 C 
ATOM      2  O   UNL     1     -11.032   2.618 -15.208  0.00  0.00    -0.245 OA
ENDROOT
BRANCH   1   7
ATOM      3  N   UNL     1     -14.173   5.265 -16.658  0.00  0.00    -0.262 NA
ATOM      4  C   UNL     1     -13.626   6.326 -17.291  0.00  0.00    +0.111 A 
ATOM      5  C   UNL     1     -12.288   6.404 -17.647  0.00  0.00    +0.020 A 
ATOM      6  C   UNL     1     -11.457   5.331 -17.333  0.00  0.00    +0.018 A 
ATOM      7  C   UNL     1     -11.989   4.215 -16.683  0.00  0.00    +0.077 A 
ATOM      8  C   UNL     1     -13.341   4.231 -16.368  0.00  0.00    +0.125 A 
ENDBRANCH   1   7
BRANCH   1   9
ATOM      9  O   UNL     1     -10.400   2.681 -17.417  0.00  0.00    -0.461 OA
BRANCH   9  10
ATOM     10  C   UNL     1      -9.931   1.324 -17.390  0.00  0.00    +0.232 C 
BRANCH  10  11
ATOM     11  C   UNL     1     -11.070   0.347 -17.672  0.00  0.00    +0.041 C 
BRANCH  11  12
ATOM     12  C   UNL     1     -11.208  -0.684 -16.554  0.00  0.00    -0.000 C 
ATOM     13  C   UNL     1      -9.932  -0.796 -15.735  0.00  0.00    +0.004 C 
ENDBRANCH  11  12
ENDBRANCH  10  11
ENDBRANCH   9  10
ENDBRANCH   1   9
TORSDOF 5
ENDMDL
MODEL 6
REMARK VINA RESULT:      -4.7     10.570     11.971
REMARK  Name = min_compound93.pdb
REMARK  6 active torsions:
REMARK  status: ('A' for Active; 'I' for Inactive)
REMARK    1  A    between atoms: _3  and  _7
REMARK    2  A    between atoms: _7  and  _9
REMARK    3  A    between atoms: _9  and  _10
REMARK    4  A    between atoms: _10  and  _11
REMARK    5  A    between atoms: _11  and  _12
REMARK    6  A    between atoms: _12  and  _13
REMARK                            x       y       z     vdW  Elec       q    Type
REMARK                         _______ _______ _______ _____ _____    ______ ____
ROOT
ATOM      1  C   UNL     1     -15.276   0.428  -7.147  0.00  0.00    +0.341 C 
ATOM      2  O   UNL     1     -15.731  -0.651  -7.493  0.00  0.00    -0.245 OA
ENDROOT
BRANCH   1   7
ATOM      3  N   UNL     1     -16.680   3.550  -8.741  0.00  0.00    -0.262 NA
ATOM      4  C   UNL     1     -17.362   4.051  -7.688  0.00  0.00    +0.111 A 
ATOM      5  C   UNL     1     -17.409   3.445  -6.442  0.00  0.00    +0.020 A 
ATOM      6  C   UNL     1     -16.717   2.248  -6.264  0.00  0.00    +0.018 A 
ATOM      7  C   UNL     1     -15.996   1.704  -7.329  0.00  0.00    +0.077 A 
ATOM      8  C   UNL     1     -16.011   2.386  -8.538  0.00  0.00    +0.125 A 
ENDBRANCH   1   7
BRANCH   1   9
ATOM      9  O   UNL     1     -14.088   0.637  -6.530  0.00  0.00    -0.461 OA
BRANCH   9  10
ATOM     10  C   UNL     1     -13.785  -0.246  -5.439  0.00  0.00    +0.232 C 
BRANCH  10  11
ATOM     11  C   UNL     1     -14.384   0.274  -4.134  0.00  0.00    +0.041 C 
BRANCH  11  12
ATOM     12  C   UNL     1     -13.392   1.156  -3.379  0.00  0.00    -0.000 C 
ATOM     13  C   UNL     1     -13.665   2.633  -3.614  0.00  0.00    +0.004 C 
ENDBRANCH  11  12
ENDBRANCH  10  11
ENDBRANCH   9  10
ENDBRANCH   1   9
TORSDOF 5
ENDMDL
MODEL 7
REMARK VINA RESULT:      -4.7      2.224      2.675
REMARK  Name = min_compound93.pdb
REMARK  6 active torsions:
REMARK  status: ('A' for Active; 'I' for Inactive)
REMARK    1  A    between atoms: _3  and  _7
REMARK    2  A    between atoms: _7  and  _9
REMARK    3  A    between atoms: _9  and  _10
REMARK    4  A    between atoms: _10  and  _11
REMARK    5  A    between atoms: _11  and  _12
REMARK    6  A    between atoms: _12  and  _13
REMARK                            x       y       z     vdW  Elec       q    Type
REMARK                         _______ _______ _______ _____ _____    ______ ____
ROOT
ATOM      1  C   UNL     1     -12.736   2.273 -17.044  0.00  0.00    +0.341 C 
ATOM      2  O   UNL     1     -13.813   2.315 -16.471  0.00  0.00    -0.245 OA
ENDROOT
BRANCH   1   7
ATOM      3  N   UNL     1      -9.834   0.628 -15.274  0.00  0.00    -0.262 NA
ATOM      4  C   UNL     1      -9.725  -0.494 -16.019  0.00  0.00    +0.111 A 
ATOM      5  C   UNL     1     -10.542  -0.781 -17.102  0.00  0.00    +0.020 A 
ATOM      6  C   UNL     1     -11.535   0.135 -17.441  0.00  0.00    +0.018 A 
ATOM      7  C   UNL     1     -11.674   1.308 -16.696  0.00  0.00    +0.077 A 
ATOM      8  C   UNL     1     -10.807   1.506 -15.629  0.00  0.00    +0.125 A 
ENDBRANCH   1   7
BRANCH   1   9
ATOM      9  O   UNL     1     -12.348   3.053 -18.082  0.00  0.00    -0.461 OA
BRANCH   9  10
ATOM     10  C   UNL     1     -12.262   4.461 -17.810  0.00  0.00    +0.232 C 
BRANCH  10  11
ATOM     11  C   UNL     1     -12.554   5.277 -19.067  0.00  0.00    +0.041 C 
BRANCH  11  12
ATOM     12  C   UNL     1     -11.938   6.672 -18.979  0.00  0.00    -0.000 C 
ATOM     13  C   UNL     1     -11.468   7.163 -20.339  0.00  0.00    +0.004 C 
ENDBRANCH  11  12
ENDBRANCH  10  11
ENDBRANCH   9  10
ENDBRANCH   1   9
TORSDOF 5
ENDMDL
MODEL 8
REMARK VINA RESULT:      -4.6      1.852      3.040
REMARK  Name = min_compound93.pdb
REMARK  6 active torsions:
REMARK  status: ('A' for Active; 'I' for Inactive)
REMARK    1  A    between atoms: _3  and  _7
REMARK    2  A    between atoms: _7  and  _9
REMARK    3  A    between atoms: _9  and  _10
REMARK    4  A    between atoms: _10  and  _11
REMARK    5  A    between atoms: _11  and  _12
REMARK    6  A    between atoms: _12  and  _13
REMARK                            x       y       z     vdW  Elec       q    Type
REMARK                         _______ _______ _______ _____ _____    ______ ____
ROOT
ATOM      1  C   UNL     1     -12.295   3.246 -15.962  0.00  0.00    +0.341 C 
ATOM      2  O   UNL     1     -13.105   3.559 -15.105  0.00  0.00    -0.245 OA
ENDROOT
BRANCH   1   7
ATOM      3  N   UNL     1      -9.849   0.403 -15.527  0.00  0.00    -0.262 NA
ATOM      4  C   UNL     1     -10.539  -0.581 -16.143  0.00  0.00    +0.111 A 
ATOM      5  C   UNL     1     -11.786  -0.402 -16.723  0.00  0.00    +0.020 A 
ATOM      6  C   UNL     1     -12.364   0.865 -16.664  0.00  0.00    +0.018 A 
ATOM      7  C   UNL     1     -11.677   1.908 -16.040  0.00  0.00    +0.077 A 
ATOM      8  C   UNL     1     -10.434   1.628 -15.489  0.00  0.00    +0.125 A 
ENDBRANCH   1   7
BRANCH   1   9
ATOM      9  O   UNL     1     -11.857   4.031 -16.977  0.00  0.00    -0.461 OA
BRANCH   9  10
ATOM     10  C   UNL     1     -12.879   4.663 -17.765  0.00  0.00    +0.232 C 
BRANCH  10  11
ATOM     11  C   UNL     1     -13.098   3.913 -19.076  0.00  0.00    +0.041 C 
BRANCH  11  12
ATOM     12  C   UNL     1     -14.380   3.085 -19.036  0.00  0.00    -0.000 C 
ATOM     13  C   UNL     1     -15.354   3.611 -17.993  0.00  0.00    +0.004 C 
ENDBRANCH  11  12
ENDBRANCH  10  11
ENDBRANCH   9  10
ENDBRANCH   1   9
TORSDOF 5
ENDMDL
MODEL 9
REMARK VINA RESULT:      -4.6      3.169      5.133
REMARK  Name = min_compound93.pdb
REMARK  6 active torsions:
REMARK  status: ('A' for Active; 'I' for Inactive)
REMARK    1  A    between atoms: _3  and  _7
REMARK    2  A    between atoms: _7  and  _9
REMARK    3  A    between atoms: _9  and  _10
REMARK    4  A    between atoms: _10  and  _11
REMARK    5  A    between atoms: _11  and  _12
REMARK    6  A    between atoms: _12  and  _13
REMARK                            x       y       z     vdW  Elec       q    Type
REMARK                         _______ _______ _______ _____ _____    ______ ____
ROOT
ATOM      1  C   UNL     1     -13.285   3.134 -16.421  0.00  0.00    +0.341 C 
ATOM      2  O   UNL     1     -13.358   3.638 -17.530  0.00  0.00    -0.245 OA
ENDROOT
BRANCH   1   7
ATOM      3  N   UNL     1     -15.445   4.130 -13.489  0.00  0.00    -0.262 NA
ATOM      4  C   UNL     1     -16.462   3.255 -13.653  0.00  0.00    +0.111 A 
ATOM      5  C   UNL     1     -16.515   2.320 -14.675  0.00  0.00    +0.020 A 
ATOM      6  C   UNL     1     -15.463   2.279 -15.588  0.00  0.00    +0.018 A 
ATOM      7  C   UNL     1     -14.392   3.164 -15.446  0.00  0.00    +0.077 A 
ATOM      8  C   UNL     1     -14.431   4.065 -14.390  0.00  0.00    +0.125 A 
ENDBRANCH   1   7
BRANCH   1   9
ATOM      9  O   UNL     1     -12.226   2.455 -15.916  0.00  0.00    -0.461 OA
BRANCH   9  10
ATOM     10  C   UNL     1     -11.470   1.681 -16.862  0.00  0.00    +0.232 C 
BRANCH  10  11
ATOM     11  C   UNL     1     -11.846   0.204 -16.781  0.00  0.00    +0.041 C 
BRANCH  11  12
ATOM     12  C   UNL     1     -10.633  -0.692 -17.023  0.00  0.00    -0.000 C 
ATOM     13  C   UNL     1      -9.769  -0.813 -15.778  0.00  0.00    +0.004 C 
ENDBRANCH  11  12
ENDBRANCH  10  11
ENDBRANCH   9  10
ENDBRANCH   1   9
TORSDOF 5
ENDMDL
