MODEL 1
REMARK VINA RESULT:      -5.4      0.000      0.000
REMARK  Name = min_compound951.pdb
REMARK  0 active torsions:
REMARK  status: ('A' for Active; 'I' for Inactive)
REMARK                            x       y       z     vdW  Elec       q    Type
REMARK                         _______ _______ _______ _____ _____    ______ ____
ROOT
ATOM      1 CL   UNL     1     -11.925   6.288 -17.425  0.00  0.00    -0.080 Cl
ATOM      2  C   UNL     1     -12.020   4.579 -17.727  0.00  0.00    +0.081 A 
ATOM      3  C   UNL     1     -12.856   4.070 -18.741  0.00  0.00    +0.081 A 
ATOM      4  C   UNL     1     -12.930   2.683 -18.982  0.00  0.00    +0.088 A 
ATOM      5 CL   UNL     1     -13.923   1.972 -20.198  0.00  0.00    -0.080 Cl
ATOM      6  C   UNL     1     -12.150   1.849 -18.181  0.00  0.00    +0.107 A 
ATOM      7  N   UNL     1     -11.974   0.493 -18.133  0.00  0.00    -0.256 N 
ATOM      8  N   UNL     1     -11.105   0.140 -17.176  0.00  0.00    -0.067 NA
ATOM      9  N   UNL     1     -10.694   1.251 -16.580  0.00  0.00    -0.128 NA
ATOM     10  H   UNL     1     -12.401  -0.230 -18.703  0.00  0.00    +0.191 HD
ATOM     11  C   UNL     1     -11.317   2.319 -17.174  0.00  0.00    +0.134 A 
ATOM     12 CL   UNL     1     -13.812   5.150 -19.715  0.00  0.00    -0.080 Cl
ATOM     13  C   UNL     1     -11.252   3.700 -16.946  0.00  0.00    +0.090 A 
ATOM     14 CL   UNL     1     -10.195   4.169 -15.683  0.00  0.00    -0.080 Cl
ENDROOT
TORSDOF 0
ENDMDL
MODEL 2
REMARK VINA RESULT:      -5.1     13.092     13.728
REMARK  Name = min_compound951.pdb
REMARK  0 active torsions:
REMARK  status: ('A' for Active; 'I' for Inactive)
REMARK                            x       y       z     vdW  Elec       q    Type
REMARK                         _______ _______ _______ _____ _____    ______ ____
ROOT
ATOM      1 CL   UNL     1     -13.718  -0.460  -5.462  0.00  0.00    -0.080 Cl
ATOM      2  C   UNL     1     -14.917   0.798  -5.413  0.00  0.00    +0.081 A 
ATOM      3  C   UNL     1     -16.041   0.758  -6.261  0.00  0.00    +0.081 A 
ATOM      4  C   UNL     1     -17.010   1.781  -6.218  0.00  0.00    +0.088 A 
ATOM      5 CL   UNL     1     -18.414   1.816  -7.217  0.00  0.00    -0.080 Cl
ATOM      6  C   UNL     1     -16.808   2.820  -5.309  0.00  0.00    +0.107 A 
ATOM      7  N   UNL     1     -17.520   3.947  -5.001  0.00  0.00    -0.256 N 
ATOM      8  N   UNL     1     -16.922   4.663  -4.039  0.00  0.00    -0.067 NA
ATOM      9  N   UNL     1     -15.811   4.024  -3.698  0.00  0.00    -0.128 NA
ATOM     10  H   UNL     1     -18.394   4.281  -5.393  0.00  0.00    +0.191 HD
ATOM     11  C   UNL     1     -15.711   2.888  -4.459  0.00  0.00    +0.134 A 
ATOM     12 CL   UNL     1     -16.250  -0.558  -7.380  0.00  0.00    -0.080 Cl
ATOM     13  C   UNL     1     -14.756   1.864  -4.513  0.00  0.00    +0.090 A 
ATOM     14 CL   UNL     1     -13.447   2.048  -3.424  0.00  0.00    -0.080 Cl
ENDROOT
TORSDOF 0
ENDMDL
MODEL 3
REMARK VINA RESULT:      -5.1      2.182      3.541
REMARK  Name = min_compound951.pdb
REMARK  0 active torsions:
REMARK  status: ('A' for Active; 'I' for Inactive)
REMARK                            x       y       z     vdW  Elec       q    Type
REMARK                         _______ _______ _______ _____ _____    ______ ____
ROOT
ATOM      1 CL   UNL     1      -9.949   4.524 -15.483  0.00  0.00    -0.080 Cl
ATOM      2  C   UNL     1     -10.953   3.592 -16.553  0.00  0.00    +0.081 A 
ATOM      3  C   UNL     1     -11.037   2.191 -16.427  0.00  0.00    +0.081 A 
ATOM      4  C   UNL     1     -11.853   1.439 -17.297  0.00  0.00    +0.088 A 
ATOM      5 CL   UNL     1     -12.017  -0.274 -17.216  0.00  0.00    -0.080 Cl
ATOM      6  C   UNL     1     -12.562   2.136 -18.275  0.00  0.00    +0.107 A 
ATOM      7  N   UNL     1     -13.425   1.746 -19.262  0.00  0.00    -0.256 N 
ATOM      8  N   UNL     1     -13.868   2.791 -19.974  0.00  0.00    -0.067 NA
ATOM      9  N   UNL     1     -13.308   3.883 -19.471  0.00  0.00    -0.128 NA
ATOM     10  H   UNL     1     -13.747   0.814 -19.502  0.00  0.00    +0.191 HD
ATOM     11  C   UNL     1     -12.500   3.515 -18.426  0.00  0.00    +0.134 A 
ATOM     12 CL   UNL     1     -10.133   1.365 -15.190  0.00  0.00    -0.080 Cl
ATOM     13  C   UNL     1     -11.686   4.250 -17.554  0.00  0.00    +0.090 A 
ATOM     14 CL   UNL     1     -11.684   5.940 -17.829  0.00  0.00    -0.080 Cl
ENDROOT
TORSDOF 0
ENDMDL
MODEL 4
REMARK VINA RESULT:      -5.1     12.050     12.661
REMARK  Name = min_compound951.pdb
REMARK  0 active torsions:
REMARK  status: ('A' for Active; 'I' for Inactive)
REMARK                            x       y       z     vdW  Elec       q    Type
REMARK                         _______ _______ _______ _____ _____    ______ ____
ROOT
ATOM      1 CL   UNL     1     -17.288   3.763  -6.301  0.00  0.00    -0.080 Cl
ATOM      2  C   UNL     1     -16.645   2.148  -6.286  0.00  0.00    +0.081 A 
ATOM      3  C   UNL     1     -16.926   1.250  -7.334  0.00  0.00    +0.081 A 
ATOM      4  C   UNL     1     -16.403  -0.059  -7.318  0.00  0.00    +0.088 A 
ATOM      5 CL   UNL     1     -16.693  -1.224  -8.554  0.00  0.00    -0.080 Cl
ATOM      6  C   UNL     1     -15.604  -0.419  -6.232  0.00  0.00    +0.107 A 
ATOM      7  N   UNL     1     -14.947  -1.569  -5.893  0.00  0.00    -0.256 N 
ATOM      8  N   UNL     1     -14.293  -1.442  -4.730  0.00  0.00    -0.067 NA
ATOM      9  N   UNL     1     -14.507  -0.211  -4.284  0.00  0.00    -0.128 NA
ATOM     10  H   UNL     1     -14.901  -2.452  -6.390  0.00  0.00    +0.191 HD
ATOM     11  C   UNL     1     -15.309   0.444  -5.184  0.00  0.00    +0.134 A 
ATOM     12 CL   UNL     1     -17.928   1.743  -8.669  0.00  0.00    -0.080 Cl
ATOM     13  C   UNL     1     -15.836   1.742  -5.213  0.00  0.00    +0.090 A 
ATOM     14 CL   UNL     1     -15.408   2.719  -3.873  0.00  0.00    -0.080 Cl
ENDROOT
TORSDOF 0
ENDMDL
MODEL 5
REMARK VINA RESULT:      -4.9     12.677     13.586
REMARK  Name = min_compound951.pdb
REMARK  0 active torsions:
REMARK  status: ('A' for Active; 'I' for Inactive)
REMARK                            x       y       z     vdW  Elec       q    Type
REMARK                         _______ _______ _______ _____ _____    ______ ____
ROOT
ATOM      1 CL   UNL     1     -16.755   1.721  -8.876  0.00  0.00    -0.080 Cl
ATOM      2  C   UNL     1     -16.832   0.674  -7.491  0.00  0.00    +0.081 A 
ATOM      3  C   UNL     1     -15.680   0.401  -6.727  0.00  0.00    +0.081 A 
ATOM      4  C   UNL     1     -15.749  -0.449  -5.604  0.00  0.00    +0.088 A 
ATOM      5 CL   UNL     1     -14.394  -0.840  -4.613  0.00  0.00    -0.080 Cl
ATOM      6  C   UNL     1     -16.991  -0.999  -5.288  0.00  0.00    +0.107 A 
ATOM      7  N   UNL     1     -17.419  -1.840  -4.298  0.00  0.00    -0.256 N 
ATOM      8  N   UNL     1     -18.730  -2.098  -4.399  0.00  0.00    -0.067 NA
ATOM      9  N   UNL     1     -19.187  -1.434  -5.452  0.00  0.00    -0.128 NA
ATOM     10  H   UNL     1     -16.889  -2.265  -3.544  0.00  0.00    +0.191 HD
ATOM     11  C   UNL     1     -18.144  -0.748  -6.020  0.00  0.00    +0.134 A 
ATOM     12 CL   UNL     1     -14.151   1.110  -7.159  0.00  0.00    -0.080 Cl
ATOM     13  C   UNL     1     -18.062   0.098  -7.134  0.00  0.00    +0.090 A 
ATOM     14 CL   UNL     1     -19.542   0.337  -7.963  0.00  0.00    -0.080 Cl
ENDROOT
TORSDOF 0
ENDMDL
MODEL 6
REMARK VINA RESULT:      -4.9     12.849     13.916
REMARK  Name = min_compound951.pdb
REMARK  0 active torsions:
REMARK  status: ('A' for Active; 'I' for Inactive)
REMARK                            x       y       z     vdW  Elec       q    Type
REMARK                         _______ _______ _______ _____ _____    ______ ____
ROOT
ATOM      1 CL   UNL     1     -16.119  -0.479  -7.749  0.00  0.00    -0.080 Cl
ATOM      2  C   UNL     1     -16.067   0.777  -6.548  0.00  0.00    +0.081 A 
ATOM      3  C   UNL     1     -15.002   0.854  -5.629  0.00  0.00    +0.081 A 
ATOM      4  C   UNL     1     -14.964   1.874  -4.657  0.00  0.00    +0.088 A 
ATOM      5 CL   UNL     1     -13.704   2.046  -3.494  0.00  0.00    -0.080 Cl
ATOM      6  C   UNL     1     -16.015   2.792  -4.647  0.00  0.00    +0.107 A 
ATOM      7  N   UNL     1     -16.301   3.880  -3.870  0.00  0.00    -0.256 N 
ATOM      8  N   UNL     1     -17.447   4.467  -4.241  0.00  0.00    -0.067 NA
ATOM      9  N   UNL     1     -17.934   3.779  -5.265  0.00  0.00    -0.128 NA
ATOM     10  H   UNL     1     -15.777   4.270  -3.093  0.00  0.00    +0.191 HD
ATOM     11  C   UNL     1     -17.079   2.743  -5.539  0.00  0.00    +0.134 A 
ATOM     12 CL   UNL     1     -13.712  -0.314  -5.679  0.00  0.00    -0.080 Cl
ATOM     13  C   UNL     1     -17.103   1.724  -6.500  0.00  0.00    +0.090 A 
ATOM     14 CL   UNL     1     -18.458   1.759  -7.547  0.00  0.00    -0.080 Cl
ENDROOT
TORSDOF 0
ENDMDL
MODEL 7
REMARK VINA RESULT:      -4.8     12.540     13.096
REMARK  Name = min_compound951.pdb
REMARK  0 active torsions:
REMARK  status: ('A' for Active; 'I' for Inactive)
REMARK                            x       y       z     vdW  Elec       q    Type
REMARK                         _______ _______ _______ _____ _____    ______ ____
ROOT
ATOM      1 CL   UNL     1     -13.972   2.318  -3.552  0.00  0.00    -0.080 Cl
ATOM      2  C   UNL     1     -15.145   1.850  -4.747  0.00  0.00    +0.081 A 
ATOM      3  C   UNL     1     -16.321   2.602  -4.938  0.00  0.00    +0.081 A 
ATOM      4  C   UNL     1     -17.269   2.219  -5.908  0.00  0.00    +0.088 A 
ATOM      5 CL   UNL     1     -18.733   3.076  -6.210  0.00  0.00    -0.080 Cl
ATOM      6  C   UNL     1     -16.993   1.077  -6.661  0.00  0.00    +0.107 A 
ATOM      7  N   UNL     1     -17.665   0.429  -7.660  0.00  0.00    -0.256 N 
ATOM      8  N   UNL     1     -16.996  -0.650  -8.089  0.00  0.00    -0.067 NA
ATOM      9  N   UNL     1     -15.875  -0.731  -7.383  0.00  0.00    -0.128 NA
ATOM     10  H   UNL     1     -18.557   0.657  -8.087  0.00  0.00    +0.191 HD
ATOM     11  C   UNL     1     -15.843   0.315  -6.497  0.00  0.00    +0.134 A 
ATOM     12 CL   UNL     1     -16.623   4.020  -3.975  0.00  0.00    -0.080 Cl
ATOM     13  C   UNL     1     -14.910   0.707  -5.529  0.00  0.00    +0.090 A 
ATOM     14 CL   UNL     1     -13.531  -0.302  -5.412  0.00  0.00    -0.080 Cl
ENDROOT
TORSDOF 0
ENDMDL
MODEL 8
REMARK VINA RESULT:      -4.7      2.935      3.754
REMARK  Name = min_compound951.pdb
REMARK  0 active torsions:
REMARK  status: ('A' for Active; 'I' for Inactive)
REMARK                            x       y       z     vdW  Elec       q    Type
REMARK                         _______ _______ _______ _____ _____    ______ ____
ROOT
ATOM      1 CL   UNL     1     -10.217   1.641 -15.624  0.00  0.00    -0.080 Cl
ATOM      2  C   UNL     1     -11.122   2.692 -16.672  0.00  0.00    +0.081 A 
ATOM      3  C   UNL     1     -12.118   2.177 -17.525  0.00  0.00    +0.081 A 
ATOM      4  C   UNL     1     -12.849   3.033 -18.374  0.00  0.00    +0.088 A 
ATOM      5 CL   UNL     1     -14.084   2.494 -19.448  0.00  0.00    -0.080 Cl
ATOM      6  C   UNL     1     -12.545   4.394 -18.331  0.00  0.00    +0.107 A 
ATOM      7  N   UNL     1     -13.035   5.485 -18.995  0.00  0.00    -0.256 N 
ATOM      8  N   UNL     1     -12.420   6.613 -18.615  0.00  0.00    -0.067 NA
ATOM      9  N   UNL     1     -11.517   6.288 -17.700  0.00  0.00    -0.128 NA
ATOM     10  H   UNL     1     -13.766   5.534 -19.697  0.00  0.00    +0.191 HD
ATOM     11  C   UNL     1     -11.568   4.932 -17.502  0.00  0.00    +0.134 A 
ATOM     12 CL   UNL     1     -12.464   0.471 -17.544  0.00  0.00    -0.080 Cl
ATOM     13  C   UNL     1     -10.850   4.069 -16.664  0.00  0.00    +0.090 A 
ATOM     14 CL   UNL     1      -9.672   4.837 -15.686  0.00  0.00    -0.080 Cl
ENDROOT
TORSDOF 0
ENDMDL
MODEL 9
REMARK VINA RESULT:      -4.7     12.599     13.281
REMARK  Name = min_compound951.pdb
REMARK  0 active torsions:
REMARK  status: ('A' for Active; 'I' for Inactive)
REMARK                            x       y       z     vdW  Elec       q    Type
REMARK                         _______ _______ _______ _____ _____    ______ ____
ROOT
ATOM      1 CL   UNL     1     -16.775   4.016  -4.000  0.00  0.00    -0.080 Cl
ATOM      2  C   UNL     1     -16.429   2.599  -4.947  0.00  0.00    +0.081 A 
ATOM      3  C   UNL     1     -15.215   1.902  -4.786  0.00  0.00    +0.081 A 
ATOM      4  C   UNL     1     -14.939   0.754  -5.556  0.00  0.00    +0.088 A 
ATOM      5 CL   UNL     1     -13.484  -0.161  -5.427  0.00  0.00    -0.080 Cl
ATOM      6  C   UNL     1     -15.909   0.345  -6.471  0.00  0.00    +0.107 A 
ATOM      7  N   UNL     1     -15.981  -0.692  -7.360  0.00  0.00    -0.256 N 
ATOM      8  N   UNL     1     -17.133  -0.681  -8.043  0.00  0.00    -0.067 NA
ATOM      9  N   UNL     1     -17.839   0.359  -7.619  0.00  0.00    -0.128 NA
ATOM     10  H   UNL     1     -15.303  -1.423  -7.549  0.00  0.00    +0.191 HD
ATOM     11  C   UNL     1     -17.115   1.011  -6.653  0.00  0.00    +0.134 A 
ATOM     12 CL   UNL     1     -14.034   2.450  -3.631  0.00  0.00    -0.080 Cl
ATOM     13  C   UNL     1     -17.376   2.150  -5.882  0.00  0.00    +0.090 A 
ATOM     14 CL   UNL     1     -18.890   2.891  -6.187  0.00  0.00    -0.080 Cl
ENDROOT
TORSDOF 0
ENDMDL
