MODEL 1
REMARK VINA RESULT:      -5.4      0.000      0.000
REMARK  Name = min_compound97.pdb
REMARK  4 active torsions:
REMARK  status: ('A' for Active; 'I' for Inactive)
REMARK    1  A    between atoms: _5  and  _12
REMARK    2  A    between atoms: _5  and  _14
REMARK    3  A    between atoms: _9  and  _10
REMARK    4  A    between atoms: _14  and  _15
REMARK                            x       y       z     vdW  Elec       q    Type
REMARK                         _______ _______ _______ _____ _____    ______ ____
ROOT
ATOM      1  C   UNL     1     -13.922   0.096  -6.094  0.00  0.00    +0.074 C 
ATOM      2  C   UNL     1     -14.808  -0.903  -5.983  0.00  0.00    +0.245 C 
ATOM      3  O   UNL     1     -15.905  -0.958  -6.844  0.00  0.00    -0.269 OA
ATOM      4  O   UNL     1     -16.449   0.411  -7.020  0.00  0.00    -0.247 OA
ATOM      5  C   UNL     1     -15.443   1.236  -7.530  0.00  0.00    +0.332 C 
ATOM      6  C   UNL     1     -14.191   1.123  -7.065  0.00  0.00    +0.096 C 
ENDROOT
BRANCH   2   7
ATOM      7  N   UNL     1     -14.615  -1.935  -5.103  0.00  0.00    -0.237 N 
ATOM      8  H   UNL     1     -14.073  -2.723  -5.422  0.00  0.00    +0.159 HD
ATOM      9  C   UNL     1     -14.914  -1.927  -3.769  0.00  0.00    +0.304 C 
ATOM     10  O   UNL     1     -15.358  -1.005  -3.103  0.00  0.00    -0.253 OA
ATOM     11  N   UNL     1     -14.634  -3.125  -3.178  0.00  0.00    -0.313 N 
ATOM     12  H   UNL     1     -14.878  -3.958  -3.694  0.00  0.00    +0.146 HD
ATOM     13  H   UNL     1     -14.922  -3.146  -2.207  0.00  0.00    +0.146 HD
ENDBRANCH   2   7
BRANCH   5  14
ATOM     14  O   UNL     1     -15.772   2.287  -8.359  0.00  0.00    -0.457 OA
BRANCH  14  15
ATOM     15  C   UNL     1     -16.991   2.060  -9.067  0.00  0.00    +0.259 C 
BRANCH  15  16
ATOM     16  C   UNL     1     -16.997   2.956 -10.273  0.00  0.00    +0.006 C 
ATOM     17  C   UNL     1     -16.090   3.909 -10.523  0.00  0.00    +0.007 C 
ENDBRANCH  15  16
ENDBRANCH  14  15
ENDBRANCH   5  14
TORSDOF 4
ENDMDL
MODEL 2
REMARK VINA RESULT:      -5.4      9.214     10.815
REMARK  Name = min_compound97.pdb
REMARK  4 active torsions:
REMARK  status: ('A' for Active; 'I' for Inactive)
REMARK    1  A    between atoms: _5  and  _12
REMARK    2  A    between atoms: _5  and  _14
REMARK    3  A    between atoms: _9  and  _10
REMARK    4  A    between atoms: _14  and  _15
REMARK                            x       y       z     vdW  Elec       q    Type
REMARK                         _______ _______ _______ _____ _____    ______ ____
ROOT
ATOM      1  C   UNL     1     -13.628   3.426 -15.774  0.00  0.00    +0.074 C 
ATOM      2  C   UNL     1     -14.442   2.394 -16.037  0.00  0.00    +0.245 C 
ATOM      3  O   UNL     1     -13.928   1.098 -16.089  0.00  0.00    -0.269 OA
ATOM      4  O   UNL     1     -12.622   1.126 -16.794  0.00  0.00    -0.247 OA
ATOM      5  C   UNL     1     -11.759   1.989 -16.115  0.00  0.00    +0.332 C 
ATOM      6  C   UNL     1     -12.224   3.149 -15.630  0.00  0.00    +0.096 C 
ENDROOT
BRANCH   2   7
ATOM      7  N   UNL     1     -15.795   2.566 -16.163  0.00  0.00    -0.237 N 
ATOM      8  H   UNL     1     -16.181   2.560 -17.095  0.00  0.00    +0.159 HD
ATOM      9  C   UNL     1     -16.712   2.552 -15.148  0.00  0.00    +0.304 C 
ATOM     10  O   UNL     1     -16.516   2.341 -13.961  0.00  0.00    -0.253 OA
ATOM     11  N   UNL     1     -17.977   2.789 -15.600  0.00  0.00    -0.313 N 
ATOM     12  H   UNL     1     -18.085   3.510 -16.300  0.00  0.00    +0.146 HD
ATOM     13  H   UNL     1     -18.646   2.852 -14.842  0.00  0.00    +0.146 HD
ENDBRANCH   2   7
BRANCH   5  14
ATOM     14  O   UNL     1     -10.403   1.744 -16.115  0.00  0.00    -0.457 OA
BRANCH  14  15
ATOM     15  C   UNL     1      -9.937   1.269 -17.378  0.00  0.00    +0.259 C 
BRANCH  15  16
ATOM     16  C   UNL     1      -9.431  -0.132 -17.185  0.00  0.00    +0.006 C 
ATOM     17  C   UNL     1      -9.537  -0.835 -16.049  0.00  0.00    +0.007 C 
ENDBRANCH  15  16
ENDBRANCH  14  15
ENDBRANCH   5  14
TORSDOF 4
ENDMDL
MODEL 3
REMARK VINA RESULT:      -5.4     11.136     11.993
REMARK  Name = min_compound97.pdb
REMARK  4 active torsions:
REMARK  status: ('A' for Active; 'I' for Inactive)
REMARK    1  A    between atoms: _5  and  _12
REMARK    2  A    between atoms: _5  and  _14
REMARK    3  A    between atoms: _9  and  _10
REMARK    4  A    between atoms: _14  and  _15
REMARK                            x       y       z     vdW  Elec       q    Type
REMARK                         _______ _______ _______ _____ _____    ______ ____
ROOT
ATOM      1  C   UNL     1     -10.461   3.599 -16.057  0.00  0.00    +0.074 C 
ATOM      2  C   UNL     1     -11.155   2.488 -16.339  0.00  0.00    +0.245 C 
ATOM      3  O   UNL     1     -12.244   2.551 -17.210  0.00  0.00    -0.269 OA
ATOM      4  O   UNL     1     -13.024   3.780 -16.918  0.00  0.00    -0.247 OA
ATOM      5  C   UNL     1     -12.189   4.890 -17.065  0.00  0.00    +0.332 C 
ATOM      6  C   UNL     1     -10.927   4.839 -16.617  0.00  0.00    +0.096 C 
ENDROOT
BRANCH   2   7
ATOM      7  N   UNL     1     -10.765   1.262 -15.868  0.00  0.00    -0.237 N 
ATOM      8  H   UNL     1     -11.266   0.885 -15.079  0.00  0.00    +0.159 HD
ATOM      9  C   UNL     1      -9.890   0.403 -16.474  0.00  0.00    +0.304 C 
ATOM     10  O   UNL     1      -9.334   0.533 -17.553  0.00  0.00    -0.253 OA
ATOM     11  N   UNL     1      -9.683  -0.722 -15.730  0.00  0.00    -0.313 N 
ATOM     12  H   UNL     1      -9.582  -0.598 -14.733  0.00  0.00    +0.146 HD
ATOM     13  H   UNL     1      -8.981  -1.326 -16.141  0.00  0.00    +0.146 HD
ENDBRANCH   2   7
BRANCH   5  14
ATOM     14  O   UNL     1     -12.716   6.093 -17.487  0.00  0.00    -0.457 OA
BRANCH  14  15
ATOM     15  C   UNL     1     -11.771   6.873 -18.218  0.00  0.00    +0.259 C 
BRANCH  15  16
ATOM     16  C   UNL     1     -12.059   6.694 -19.682  0.00  0.00    +0.006 C 
ATOM     17  C   UNL     1     -11.333   7.223 -20.676  0.00  0.00    +0.007 C 
ENDBRANCH  15  16
ENDBRANCH  14  15
ENDBRANCH   5  14
TORSDOF 4
ENDMDL
MODEL 4
REMARK VINA RESULT:      -5.2     11.658     13.014
REMARK  Name = min_compound97.pdb
REMARK  4 active torsions:
REMARK  status: ('A' for Active; 'I' for Inactive)
REMARK    1  A    between atoms: _5  and  _12
REMARK    2  A    between atoms: _5  and  _14
REMARK    3  A    between atoms: _9  and  _10
REMARK    4  A    between atoms: _14  and  _15
REMARK                            x       y       z     vdW  Elec       q    Type
REMARK                         _______ _______ _______ _____ _____    ______ ____
ROOT
ATOM      1  C   UNL     1     -11.202   4.798 -16.749  0.00  0.00    +0.074 C 
ATOM      2  C   UNL     1     -12.480   4.737 -17.147  0.00  0.00    +0.245 C 
ATOM      3  O   UNL     1     -13.051   3.504 -17.464  0.00  0.00    -0.269 OA
ATOM      4  O   UNL     1     -12.065   2.699 -18.229  0.00  0.00    -0.247 OA
ATOM      5  C   UNL     1     -10.912   2.543 -17.455  0.00  0.00    +0.332 C 
ATOM      6  C   UNL     1     -10.445   3.575 -16.741  0.00  0.00    +0.096 C 
ENDROOT
BRANCH   2   7
ATOM      7  N   UNL     1     -13.279   5.850 -17.159  0.00  0.00    -0.237 N 
ATOM      8  H   UNL     1     -14.085   5.851 -16.554  0.00  0.00    +0.159 HD
ATOM      9  C   UNL     1     -12.995   7.044 -17.763  0.00  0.00    +0.304 C 
ATOM     10  O   UNL     1     -11.976   7.363 -18.356  0.00  0.00    -0.253 OA
ATOM     11  N   UNL     1     -14.014   7.940 -17.622  0.00  0.00    -0.313 N 
ATOM     12  H   UNL     1     -14.953   7.586 -17.734  0.00  0.00    +0.146 HD
ATOM     13  H   UNL     1     -13.837   8.799 -18.130  0.00  0.00    +0.146 HD
ENDBRANCH   2   7
BRANCH   5  14
ATOM     14  O   UNL     1     -10.152   1.399 -17.581  0.00  0.00    -0.457 OA
BRANCH  14  15
ATOM     15  C   UNL     1     -10.954   0.226 -17.720  0.00  0.00    +0.259 C 
BRANCH  15  16
ATOM     16  C   UNL     1     -10.930  -0.507 -16.409  0.00  0.00    +0.006 C 
ATOM     17  C   UNL     1      -9.820  -0.832 -15.734  0.00  0.00    +0.007 C 
ENDBRANCH  15  16
ENDBRANCH  14  15
ENDBRANCH   5  14
TORSDOF 4
ENDMDL
MODEL 5
REMARK VINA RESULT:      -5.2     11.268     11.601
REMARK  Name = min_compound97.pdb
REMARK  4 active torsions:
REMARK  status: ('A' for Active; 'I' for Inactive)
REMARK    1  A    between atoms: _5  and  _12
REMARK    2  A    between atoms: _5  and  _14
REMARK    3  A    between atoms: _9  and  _10
REMARK    4  A    between atoms: _14  and  _15
REMARK                            x       y       z     vdW  Elec       q    Type
REMARK                         _______ _______ _______ _____ _____    ______ ____
ROOT
ATOM      1  C   UNL     1     -10.423   3.399 -15.763  0.00  0.00    +0.074 C 
ATOM      2  C   UNL     1     -10.947   2.315 -16.352  0.00  0.00    +0.245 C 
ATOM      3  O   UNL     1     -11.708   2.455 -17.513  0.00  0.00    -0.269 OA
ATOM      4  O   UNL     1     -12.589   3.641 -17.373  0.00  0.00    -0.247 OA
ATOM      5  C   UNL     1     -11.796   4.768 -17.145  0.00  0.00    +0.332 C 
ATOM      6  C   UNL     1     -10.738   4.684 -16.327  0.00  0.00    +0.096 C 
ENDROOT
BRANCH   2   7
ATOM      7  N   UNL     1     -10.676   1.052 -15.896  0.00  0.00    -0.237 N 
ATOM      8  H   UNL     1     -11.265   0.685 -15.165  0.00  0.00    +0.159 HD
ATOM      9  C   UNL     1      -9.810   0.157 -16.460  0.00  0.00    +0.304 C 
ATOM     10  O   UNL     1      -9.158   0.284 -17.484  0.00  0.00    -0.253 OA
ATOM     11  N   UNL     1      -9.738  -1.002 -15.743  0.00  0.00    -0.313 N 
ATOM     12  H   UNL     1      -9.713  -0.917 -14.737  0.00  0.00    +0.146 HD
ATOM     13  H   UNL     1      -9.043  -1.638 -16.117  0.00  0.00    +0.146 HD
ENDBRANCH   2   7
BRANCH   5  14
ATOM     14  O   UNL     1     -12.211   6.002 -17.600  0.00  0.00    -0.457 OA
BRANCH  14  15
ATOM     15  C   UNL     1     -13.560   6.292 -17.232  0.00  0.00    +0.259 C 
BRANCH  15  16
ATOM     16  C   UNL     1     -13.921   7.626 -17.819  0.00  0.00    +0.006 C 
ATOM     17  C   UNL     1     -14.878   8.437 -17.348  0.00  0.00    +0.007 C 
ENDBRANCH  15  16
ENDBRANCH  14  15
ENDBRANCH   5  14
TORSDOF 4
ENDMDL
MODEL 6
REMARK VINA RESULT:      -5.1      8.968     10.405
REMARK  Name = min_compound97.pdb
REMARK  4 active torsions:
REMARK  status: ('A' for Active; 'I' for Inactive)
REMARK    1  A    between atoms: _5  and  _12
REMARK    2  A    between atoms: _5  and  _14
REMARK    3  A    between atoms: _9  and  _10
REMARK    4  A    between atoms: _14  and  _15
REMARK                            x       y       z     vdW  Elec       q    Type
REMARK                         _______ _______ _______ _____ _____    ______ ____
ROOT
ATOM      1  C   UNL     1     -13.101   1.684 -16.536  0.00  0.00    +0.074 C 
ATOM      2  C   UNL     1     -11.823   2.088 -16.553  0.00  0.00    +0.245 C 
ATOM      3  O   UNL     1     -11.446   3.233 -15.850  0.00  0.00    -0.269 OA
ATOM      4  O   UNL     1     -12.487   4.275 -16.034  0.00  0.00    -0.247 OA
ATOM      5  C   UNL     1     -13.710   3.778 -15.579  0.00  0.00    +0.332 C 
ATOM      6  C   UNL     1     -14.053   2.510 -15.843  0.00  0.00    +0.096 C 
ENDROOT
BRANCH   2   7
ATOM      7  N   UNL     1     -10.848   1.347 -17.168  0.00  0.00    -0.237 N 
ATOM      8  H   UNL     1     -10.697   1.503 -18.153  0.00  0.00    +0.159 HD
ATOM      9  C   UNL     1      -9.922   0.554 -16.548  0.00  0.00    +0.304 C 
ATOM     10  O   UNL     1      -9.754   0.390 -15.350  0.00  0.00    -0.253 OA
ATOM     11  N   UNL     1      -9.112  -0.079 -17.445  0.00  0.00    -0.313 N 
ATOM     12  H   UNL     1      -9.552  -0.455 -18.273  0.00  0.00    +0.146 HD
ATOM     13  H   UNL     1      -8.474  -0.723 -16.993  0.00  0.00    +0.146 HD
ENDBRANCH   2   7
BRANCH   5  14
ATOM     14  O   UNL     1     -14.641   4.638 -15.035  0.00  0.00    -0.457 OA
BRANCH  14  15
ATOM     15  C   UNL     1     -15.309   4.074 -13.907  0.00  0.00    +0.259 C 
BRANCH  15  16
ATOM     16  C   UNL     1     -15.253   5.077 -12.790  0.00  0.00    +0.006 C 
ATOM     17  C   UNL     1     -14.927   4.793 -11.521  0.00  0.00    +0.007 C 
ENDBRANCH  15  16
ENDBRANCH  14  15
ENDBRANCH   5  14
TORSDOF 4
ENDMDL
MODEL 7
REMARK VINA RESULT:      -5.1      3.089      5.721
REMARK  Name = min_compound97.pdb
REMARK  4 active torsions:
REMARK  status: ('A' for Active; 'I' for Inactive)
REMARK    1  A    between atoms: _5  and  _12
REMARK    2  A    between atoms: _5  and  _14
REMARK    3  A    between atoms: _9  and  _10
REMARK    4  A    between atoms: _14  and  _15
REMARK                            x       y       z     vdW  Elec       q    Type
REMARK                         _______ _______ _______ _____ _____    ______ ____
ROOT
ATOM      1  C   UNL     1     -16.044  -0.045  -7.593  0.00  0.00    +0.074 C 
ATOM      2  C   UNL     1     -16.931   0.866  -7.171  0.00  0.00    +0.245 C 
ATOM      3  O   UNL     1     -16.805   1.419  -5.896  0.00  0.00    -0.269 OA
ATOM      4  O   UNL     1     -16.429   0.347  -4.940  0.00  0.00    -0.247 OA
ATOM      5  C   UNL     1     -15.232  -0.235  -5.363  0.00  0.00    +0.332 C 
ATOM      6  C   UNL     1     -15.030  -0.471  -6.666  0.00  0.00    +0.096 C 
ENDROOT
BRANCH   2   7
ATOM      7  N   UNL     1     -17.912   1.345  -7.998  0.00  0.00    -0.237 N 
ATOM      8  H   UNL     1     -18.818   0.907  -7.948  0.00  0.00    +0.159 HD
ATOM      9  C   UNL     1     -17.850   2.486  -8.750  0.00  0.00    +0.304 C 
ATOM     10  O   UNL     1     -16.950   3.309  -8.796  0.00  0.00    -0.253 OA
ATOM     11  N   UNL     1     -18.980   2.666  -9.495  0.00  0.00    -0.313 N 
ATOM     12  H   UNL     1     -19.369   1.847  -9.941  0.00  0.00    +0.146 HD
ATOM     13  H   UNL     1     -18.907   3.470 -10.107  0.00  0.00    +0.146 HD
ENDBRANCH   2   7
BRANCH   5  14
ATOM     14  O   UNL     1     -14.350  -0.743  -4.432  0.00  0.00    -0.457 OA
BRANCH  14  15
ATOM     15  C   UNL     1     -14.332   0.022  -3.227  0.00  0.00    +0.259 C 
BRANCH  15  16
ATOM     16  C   UNL     1     -13.338   1.134  -3.402  0.00  0.00    +0.006 C 
ATOM     17  C   UNL     1     -13.655   2.417  -3.621  0.00  0.00    +0.007 C 
ENDBRANCH  15  16
ENDBRANCH  14  15
ENDBRANCH   5  14
TORSDOF 4
ENDMDL
MODEL 8
REMARK VINA RESULT:      -5.0      2.044      3.086
REMARK  Name = min_compound97.pdb
REMARK  4 active torsions:
REMARK  status: ('A' for Active; 'I' for Inactive)
REMARK    1  A    between atoms: _5  and  _12
REMARK    2  A    between atoms: _5  and  _14
REMARK    3  A    between atoms: _9  and  _10
REMARK    4  A    between atoms: _14  and  _15
REMARK                            x       y       z     vdW  Elec       q    Type
REMARK                         _______ _______ _______ _____ _____    ______ ____
ROOT
ATOM      1  C   UNL     1     -14.270   0.104  -3.216  0.00  0.00    +0.074 C 
ATOM      2  C   UNL     1     -14.632  -1.178  -3.074  0.00  0.00    +0.245 C 
ATOM      3  O   UNL     1     -14.505  -2.060  -4.148  0.00  0.00    -0.269 OA
ATOM      4  O   UNL     1     -14.932  -1.371  -5.391  0.00  0.00    -0.247 OA
ATOM      5  C   UNL     1     -14.143  -0.232  -5.570  0.00  0.00    +0.332 C 
ATOM      6  C   UNL     1     -13.829   0.533  -4.516  0.00  0.00    +0.096 C 
ENDROOT
BRANCH   2   7
ATOM      7  N   UNL     1     -15.039  -1.676  -1.864  0.00  0.00    -0.237 N 
ATOM      8  H   UNL     1     -15.958  -1.418  -1.539  0.00  0.00    +0.159 HD
ATOM      9  C   UNL     1     -14.407  -2.645  -1.134  0.00  0.00    +0.304 C 
ATOM     10  O   UNL     1     -13.406  -3.278  -1.430  0.00  0.00    -0.253 OA
ATOM     11  N   UNL     1     -15.048  -2.892   0.046  0.00  0.00    -0.313 N 
ATOM     12  H   UNL     1     -15.393  -2.091   0.555  0.00  0.00    +0.146 HD
ATOM     13  H   UNL     1     -14.542  -3.555   0.621  0.00  0.00    +0.146 HD
ENDBRANCH   2   7
BRANCH   5  14
ATOM     14  O   UNL     1     -13.855   0.209  -6.845  0.00  0.00    -0.457 OA
BRANCH  14  15
ATOM     15  C   UNL     1     -14.676   1.309  -7.238  0.00  0.00    +0.259 C 
BRANCH  15  16
ATOM     16  C   UNL     1     -15.939   0.753  -7.831  0.00  0.00    +0.006 C 
ATOM     17  C   UNL     1     -16.876   1.478  -8.455  0.00  0.00    +0.007 C 
ENDBRANCH  15  16
ENDBRANCH  14  15
ENDBRANCH   5  14
TORSDOF 4
ENDMDL
MODEL 9
REMARK VINA RESULT:      -4.9      3.475      5.290
REMARK  Name = min_compound97.pdb
REMARK  4 active torsions:
REMARK  status: ('A' for Active; 'I' for Inactive)
REMARK    1  A    between atoms: _5  and  _12
REMARK    2  A    between atoms: _5  and  _14
REMARK    3  A    between atoms: _9  and  _10
REMARK    4  A    between atoms: _14  and  _15
REMARK                            x       y       z     vdW  Elec       q    Type
REMARK                         _______ _______ _______ _____ _____    ______ ____
ROOT
ATOM      1  C   UNL     1     -16.639  -0.325  -7.927  0.00  0.00    +0.074 C 
ATOM      2  C   UNL     1     -17.617   0.507  -7.544  0.00  0.00    +0.245 C 
ATOM      3  O   UNL     1     -17.335   1.554  -6.666  0.00  0.00    -0.269 OA
ATOM      4  O   UNL     1     -16.413   1.064  -5.612  0.00  0.00    -0.247 OA
ATOM      5  C   UNL     1     -15.251   0.580  -6.217  0.00  0.00    +0.332 C 
ATOM      6  C   UNL     1     -15.337  -0.138  -7.345  0.00  0.00    +0.096 C 
ENDROOT
BRANCH   2   7
ATOM      7  N   UNL     1     -18.879   0.415  -8.069  0.00  0.00    -0.237 N 
ATOM      8  H   UNL     1     -18.994   0.637  -9.047  0.00  0.00    +0.159 HD
ATOM      9  C   UNL     1     -19.973  -0.133  -7.458  0.00  0.00    +0.304 C 
ATOM     10  O   UNL     1     -20.030  -0.680  -6.368  0.00  0.00    -0.253 OA
ATOM     11  N   UNL     1     -21.091  -0.037  -8.234  0.00  0.00    -0.313 N 
ATOM     12  H   UNL     1     -21.234   0.835  -8.725  0.00  0.00    +0.146 HD
ATOM     13  H   UNL     1     -21.917  -0.375  -7.754  0.00  0.00    +0.146 HD
ENDBRANCH   2   7
BRANCH   5  14
ATOM     14  O   UNL     1     -14.044   0.672  -5.556  0.00  0.00    -0.457 OA
BRANCH  14  15
ATOM     15  C   UNL     1     -14.116   0.171  -4.221  0.00  0.00    +0.259 C 
BRANCH  15  16
ATOM     16  C   UNL     1     -13.603   1.241  -3.300  0.00  0.00    +0.006 C 
ATOM     17  C   UNL     1     -13.425   2.524  -3.640  0.00  0.00    +0.007 C 
ENDBRANCH  15  16
ENDBRANCH  14  15
ENDBRANCH   5  14
TORSDOF 4
ENDMDL
