MODEL 1
REMARK VINA RESULT:      -7.4      0.000      0.000
REMARK  Name = min_compound970.pdb
REMARK  2 active torsions:
REMARK  status: ('A' for Active; 'I' for Inactive)
REMARK    1  A    between atoms: _2  and  _17
REMARK    2  A    between atoms: _11  and  _12
REMARK                            x       y       z     vdW  Elec       q    Type
REMARK                         _______ _______ _______ _____ _____    ______ ____
ROOT
ATOM      1  C   UNL     1     -13.008   1.963 -19.163  0.00  0.00    +0.098 A 
ATOM      2  C   UNL     1     -12.376   2.122 -17.978  0.00  0.00    +0.053 A 
ATOM      3  N   UNL     1     -12.594   3.282 -17.233  0.00  0.00    -0.339 N 
ATOM      4  H   UNL     1     -12.158   3.338 -16.320  0.00  0.00    +0.167 HD
ATOM      5  C   UNL     1     -13.405   4.276 -17.663  0.00  0.00    +0.139 A 
ATOM      6  C   UNL     1     -13.764   5.499 -17.164  0.00  0.00    +0.079 A 
ATOM      7  C   UNL     1     -14.660   6.028 -18.126  0.00  0.00    +0.130 A 
ATOM      8  N   UNL     1     -14.850   5.190 -19.155  0.00  0.00    -0.159 NA
ATOM      9  N   UNL     1     -14.065   4.124 -18.864  0.00  0.00    -0.179 N 
ATOM     10  C   UNL     1     -13.943   2.998 -19.687  0.00  0.00    +0.275 A 
ATOM     11  O   UNL     1     -14.550   2.881 -20.744  0.00  0.00    -0.266 OA
ENDROOT
BRANCH   2  12
ATOM     12  C   UNL     1     -11.431   1.079 -17.444  0.00  0.00    -0.001 A 
ATOM     13  C   UNL     1     -11.885  -0.022 -16.689  0.00  0.00    +0.010 A 
ATOM     14  C   UNL     1     -11.008  -0.997 -16.196  0.00  0.00    +0.001 A 
ATOM     15  C   UNL     1      -9.644  -0.893 -16.431  0.00  0.00    +0.000 A 
ATOM     16  C   UNL     1      -9.161   0.181 -17.166  0.00  0.00    +0.001 A 
ATOM     17  C   UNL     1     -10.042   1.146 -17.672  0.00  0.00    +0.010 A 
ENDBRANCH   2  12
BRANCH   7  18
ATOM     18  C   UNL     1     -15.344   7.358 -18.058  0.00  0.00    +0.155 A 
ATOM     19  C   UNL     1     -15.080   8.380 -17.164  0.00  0.00    +0.051 A 
ATOM     20  C   UNL     1     -15.967   9.441 -17.474  0.00  0.00    +0.042 A 
ATOM     21  C   UNL     1     -16.721   9.006 -18.537  0.00  0.00    +0.196 A 
ATOM     22  O   UNL     1     -16.351   7.753 -18.898  0.00  0.00    -0.461 OA
ENDBRANCH   7  18
TORSDOF 2
ENDMDL
MODEL 2
REMARK VINA RESULT:      -7.3      8.270      9.024
REMARK  Name = min_compound970.pdb
REMARK  2 active torsions:
REMARK  status: ('A' for Active; 'I' for Inactive)
REMARK    1  A    between atoms: _2  and  _17
REMARK    2  A    between atoms: _11  and  _12
REMARK                            x       y       z     vdW  Elec       q    Type
REMARK                         _______ _______ _______ _____ _____    ______ ____
ROOT
ATOM      1  C   UNL     1     -17.742   2.212  -8.940  0.00  0.00    +0.098 A 
ATOM      2  C   UNL     1     -16.402   2.164  -8.760  0.00  0.00    +0.053 A 
ATOM      3  N   UNL     1     -15.582   3.051  -9.459  0.00  0.00    -0.339 N 
ATOM      4  H   UNL     1     -14.590   3.033  -9.251  0.00  0.00    +0.167 HD
ATOM      5  C   UNL     1     -16.076   3.953 -10.338  0.00  0.00    +0.139 A 
ATOM      6  C   UNL     1     -15.515   4.894 -11.159  0.00  0.00    +0.079 A 
ATOM      7  C   UNL     1     -16.616   5.503 -11.810  0.00  0.00    +0.130 A 
ATOM      8  N   UNL     1     -17.787   4.980 -11.419  0.00  0.00    -0.159 NA
ATOM      9  N   UNL     1     -17.441   4.023 -10.524  0.00  0.00    -0.179 N 
ATOM     10  C   UNL     1     -18.363   3.201  -9.865  0.00  0.00    +0.275 A 
ATOM     11  O   UNL     1     -19.571   3.291 -10.038  0.00  0.00    -0.266 OA
ENDROOT
BRANCH   2  12
ATOM     12  C   UNL     1     -15.769   1.166  -7.827  0.00  0.00    -0.001 A 
ATOM     13  C   UNL     1     -14.600   1.466  -7.097  0.00  0.00    +0.010 A 
ATOM     14  C   UNL     1     -14.012   0.542  -6.224  0.00  0.00    +0.001 A 
ATOM     15  C   UNL     1     -14.568  -0.720  -6.065  0.00  0.00    +0.000 A 
ATOM     16  C   UNL     1     -15.715  -1.052  -6.772  0.00  0.00    +0.001 A 
ATOM     17  C   UNL     1     -16.310  -0.119  -7.633  0.00  0.00    +0.010 A 
ENDBRANCH   2  12
BRANCH   7  18
ATOM     18  C   UNL     1     -16.546   6.603 -12.822  0.00  0.00    +0.155 A 
ATOM     19  C   UNL     1     -15.575   6.774 -13.793  0.00  0.00    +0.051 A 
ATOM     20  C   UNL     1     -15.915   7.943 -14.519  0.00  0.00    +0.042 A 
ATOM     21  C   UNL     1     -17.071   8.419 -13.949  0.00  0.00    +0.196 A 
ATOM     22  O   UNL     1     -17.460   7.617 -12.927  0.00  0.00    -0.461 OA
ENDBRANCH   7  18
TORSDOF 2
ENDMDL
MODEL 3
REMARK VINA RESULT:      -7.3      2.493      2.900
REMARK  Name = min_compound970.pdb
REMARK  2 active torsions:
REMARK  status: ('A' for Active; 'I' for Inactive)
REMARK    1  A    between atoms: _2  and  _17
REMARK    2  A    between atoms: _11  and  _12
REMARK                            x       y       z     vdW  Elec       q    Type
REMARK                         _______ _______ _______ _____ _____    ______ ____
ROOT
ATOM      1  C   UNL     1     -11.862   3.765 -17.702  0.00  0.00    +0.098 A 
ATOM      2  C   UNL     1     -12.126   2.743 -16.857  0.00  0.00    +0.053 A 
ATOM      3  N   UNL     1     -13.163   2.865 -15.931  0.00  0.00    -0.339 N 
ATOM      4  H   UNL     1     -13.376   2.056 -15.359  0.00  0.00    +0.167 HD
ATOM      5  C   UNL     1     -13.911   3.988 -15.828  0.00  0.00    +0.139 A 
ATOM      6  C   UNL     1     -14.939   4.379 -15.013  0.00  0.00    +0.079 A 
ATOM      7  C   UNL     1     -15.267   5.686 -15.454  0.00  0.00    +0.130 A 
ATOM      8  N   UNL     1     -14.497   6.082 -16.478  0.00  0.00    -0.159 NA
ATOM      9  N   UNL     1     -13.662   5.035 -16.690  0.00  0.00    -0.179 N 
ATOM     10  C   UNL     1     -12.665   5.020 -17.672  0.00  0.00    +0.275 A 
ATOM     11  O   UNL     1     -12.471   5.958 -18.434  0.00  0.00    -0.266 OA
ENDROOT
BRANCH   2  12
ATOM     12  C   UNL     1     -11.318   1.472 -16.882  0.00  0.00    -0.001 A 
ATOM     13  C   UNL     1     -10.004   1.435 -17.394  0.00  0.00    +0.010 A 
ATOM     14  C   UNL     1      -9.248   0.256 -17.414  0.00  0.00    +0.001 A 
ATOM     15  C   UNL     1      -9.789  -0.929 -16.935  0.00  0.00    +0.000 A 
ATOM     16  C   UNL     1     -11.082  -0.931 -16.429  0.00  0.00    +0.001 A 
ATOM     17  C   UNL     1     -11.830   0.254 -16.396  0.00  0.00    +0.010 A 
ENDBRANCH   2  12
BRANCH   7  18
ATOM     18  C   UNL     1     -16.334   6.568 -14.886  0.00  0.00    +0.155 A 
ATOM     19  C   UNL     1     -16.689   6.685 -13.554  0.00  0.00    +0.051 A 
ATOM     20  C   UNL     1     -17.742   7.632 -13.487  0.00  0.00    +0.042 A 
ATOM     21  C   UNL     1     -17.969   8.037 -14.780  0.00  0.00    +0.196 A 
ATOM     22  O   UNL     1     -17.124   7.403 -15.630  0.00  0.00    -0.461 OA
ENDBRANCH   7  18
TORSDOF 2
ENDMDL
MODEL 4
REMARK VINA RESULT:      -7.2     10.797     12.962
REMARK  Name = min_compound970.pdb
REMARK  2 active torsions:
REMARK  status: ('A' for Active; 'I' for Inactive)
REMARK    1  A    between atoms: _2  and  _17
REMARK    2  A    between atoms: _11  and  _12
REMARK                            x       y       z     vdW  Elec       q    Type
REMARK                         _______ _______ _______ _____ _____    ______ ____
ROOT
ATOM      1  C   UNL     1     -17.162   3.697  -8.194  0.00  0.00    +0.098 A 
ATOM      2  C   UNL     1     -16.357   3.089  -9.095  0.00  0.00    +0.053 A 
ATOM      3  N   UNL     1     -15.607   1.978  -8.708  0.00  0.00    -0.339 N 
ATOM      4  H   UNL     1     -15.067   1.507  -9.424  0.00  0.00    +0.167 HD
ATOM      5  C   UNL     1     -15.636   1.490  -7.446  0.00  0.00    +0.139 A 
ATOM      6  C   UNL     1     -14.997   0.463  -6.804  0.00  0.00    +0.079 A 
ATOM      7  C   UNL     1     -15.499   0.503  -5.480  0.00  0.00    +0.130 A 
ATOM      8  N   UNL     1     -16.394   1.486  -5.307  0.00  0.00    -0.159 NA
ATOM      9  N   UNL     1     -16.460   2.091  -6.519  0.00  0.00    -0.179 N 
ATOM     10  C   UNL     1     -17.273   3.196  -6.795  0.00  0.00    +0.275 A 
ATOM     11  O   UNL     1     -18.006   3.705  -5.957  0.00  0.00    -0.266 OA
ENDROOT
BRANCH   2  12
ATOM     12  C   UNL     1     -16.241   3.590 -10.510  0.00  0.00    -0.001 A 
ATOM     13  C   UNL     1     -17.076   3.112 -11.541  0.00  0.00    +0.010 A 
ATOM     14  C   UNL     1     -16.974   3.582 -12.857  0.00  0.00    +0.001 A 
ATOM     15  C   UNL     1     -16.021   4.535 -13.187  0.00  0.00    +0.000 A 
ATOM     16  C   UNL     1     -15.178   5.024 -12.199  0.00  0.00    +0.001 A 
ATOM     17  C   UNL     1     -15.293   4.564 -10.879  0.00  0.00    +0.010 A 
ENDBRANCH   2  12
BRANCH   7  18
ATOM     18  C   UNL     1     -15.116  -0.416  -4.362  0.00  0.00    +0.155 A 
ATOM     19  C   UNL     1     -14.912  -0.069  -3.038  0.00  0.00    +0.051 A 
ATOM     20  C   UNL     1     -14.568  -1.258  -2.347  0.00  0.00    +0.042 A 
ATOM     21  C   UNL     1     -14.580  -2.260  -3.287  0.00  0.00    +0.196 A 
ATOM     22  O   UNL     1     -14.912  -1.763  -4.504  0.00  0.00    -0.461 OA
ENDBRANCH   7  18
TORSDOF 2
ENDMDL
MODEL 5
REMARK VINA RESULT:      -7.2      2.164      2.643
REMARK  Name = min_compound970.pdb
REMARK  2 active torsions:
REMARK  status: ('A' for Active; 'I' for Inactive)
REMARK    1  A    between atoms: _2  and  _17
REMARK    2  A    between atoms: _11  and  _12
REMARK                            x       y       z     vdW  Elec       q    Type
REMARK                         _______ _______ _______ _____ _____    ______ ____
ROOT
ATOM      1  C   UNL     1     -11.638   4.810 -17.621  0.00  0.00    +0.098 A 
ATOM      2  C   UNL     1     -12.315   3.875 -16.917  0.00  0.00    +0.053 A 
ATOM      3  N   UNL     1     -13.543   4.202 -16.341  0.00  0.00    -0.339 N 
ATOM      4  H   UNL     1     -14.055   3.460 -15.879  0.00  0.00    +0.167 HD
ATOM      5  C   UNL     1     -14.081   5.440 -16.441  0.00  0.00    +0.139 A 
ATOM      6  C   UNL     1     -15.221   6.028 -15.962  0.00  0.00    +0.079 A 
ATOM      7  C   UNL     1     -15.170   7.357 -16.450  0.00  0.00    +0.130 A 
ATOM      8  N   UNL     1     -14.073   7.584 -17.188  0.00  0.00    -0.159 NA
ATOM      9  N   UNL     1     -13.408   6.402 -17.164  0.00  0.00    -0.179 N 
ATOM     10  C   UNL     1     -12.182   6.185 -17.803  0.00  0.00    +0.275 A 
ATOM     11  O   UNL     1     -11.610   7.053 -18.450  0.00  0.00    -0.266 OA
ENDROOT
BRANCH   2  12
ATOM     12  C   UNL     1     -11.770   2.484 -16.730  0.00  0.00    -0.001 A 
ATOM     13  C   UNL     1     -12.286   1.379 -17.439  0.00  0.00    +0.010 A 
ATOM     14  C   UNL     1     -11.777   0.085 -17.271  0.00  0.00    +0.001 A 
ATOM     15  C   UNL     1     -10.743  -0.148 -16.375  0.00  0.00    +0.000 A 
ATOM     16  C   UNL     1     -10.214   0.915 -15.655  0.00  0.00    +0.001 A 
ATOM     17  C   UNL     1     -10.715   2.212 -15.837  0.00  0.00    +0.010 A 
ENDBRANCH   2  12
BRANCH   7  18
ATOM     18  C   UNL     1     -16.188   8.427 -16.207  0.00  0.00    +0.155 A 
ATOM     19  C   UNL     1     -16.165   9.379 -15.203  0.00  0.00    +0.051 A 
ATOM     20  C   UNL     1     -17.325  10.178 -15.362  0.00  0.00    +0.042 A 
ATOM     21  C   UNL     1     -17.989   9.668 -16.451  0.00  0.00    +0.196 A 
ATOM     22  O   UNL     1     -17.311   8.614 -16.969  0.00  0.00    -0.461 OA
ENDBRANCH   7  18
TORSDOF 2
ENDMDL
MODEL 6
REMARK VINA RESULT:      -7.2      2.049      2.482
REMARK  Name = min_compound970.pdb
REMARK  2 active torsions:
REMARK  status: ('A' for Active; 'I' for Inactive)
REMARK    1  A    between atoms: _2  and  _17
REMARK    2  A    between atoms: _11  and  _12
REMARK                            x       y       z     vdW  Elec       q    Type
REMARK                         _______ _______ _______ _____ _____    ______ ____
ROOT
ATOM      1  C   UNL     1     -14.269   2.153 -16.138  0.00  0.00    +0.098 A 
ATOM      2  C   UNL     1     -13.043   2.504 -16.587  0.00  0.00    +0.053 A 
ATOM      3  N   UNL     1     -12.778   3.840 -16.892  0.00  0.00    -0.339 N 
ATOM      4  H   UNL     1     -11.831   4.079 -17.161  0.00  0.00    +0.167 HD
ATOM      5  C   UNL     1     -13.718   4.807 -16.776  0.00  0.00    +0.139 A 
ATOM      6  C   UNL     1     -13.739   6.153 -17.029  0.00  0.00    +0.079 A 
ATOM      7  C   UNL     1     -15.051   6.560 -16.679  0.00  0.00    +0.130 A 
ATOM      8  N   UNL     1     -15.796   5.539 -16.234  0.00  0.00    -0.159 NA
ATOM      9  N   UNL     1     -14.970   4.467 -16.309  0.00  0.00    -0.179 N 
ATOM     10  C   UNL     1     -15.345   3.167 -15.953  0.00  0.00    +0.275 A 
ATOM     11  O   UNL     1     -16.460   2.892 -15.529  0.00  0.00    -0.266 OA
ENDROOT
BRANCH   2  12
ATOM     12  C   UNL     1     -11.952   1.483 -16.777  0.00  0.00    -0.001 A 
ATOM     13  C   UNL     1     -10.662   1.844 -17.219  0.00  0.00    +0.010 A 
ATOM     14  C   UNL     1      -9.644   0.897 -17.391  0.00  0.00    +0.001 A 
ATOM     15  C   UNL     1      -9.889  -0.446 -17.140  0.00  0.00    +0.000 A 
ATOM     16  C   UNL     1     -11.149  -0.838 -16.708  0.00  0.00    +0.001 A 
ATOM     17  C   UNL     1     -12.161   0.114 -16.522  0.00  0.00    +0.010 A 
ENDBRANCH   2  12
BRANCH   7  18
ATOM     18  C   UNL     1     -15.597   7.951 -16.771  0.00  0.00    +0.155 A 
ATOM     19  C   UNL     1     -15.868   8.658 -17.929  0.00  0.00    +0.051 A 
ATOM     20  C   UNL     1     -16.370   9.924 -17.534  0.00  0.00    +0.042 A 
ATOM     21  C   UNL     1     -16.376   9.916 -16.160  0.00  0.00    +0.196 A 
ATOM     22  O   UNL     1     -15.915   8.731 -15.691  0.00  0.00    -0.461 OA
ENDBRANCH   7  18
TORSDOF 2
ENDMDL
MODEL 7
REMARK VINA RESULT:      -7.2      2.990      4.341
REMARK  Name = min_compound970.pdb
REMARK  2 active torsions:
REMARK  status: ('A' for Active; 'I' for Inactive)
REMARK    1  A    between atoms: _2  and  _17
REMARK    2  A    between atoms: _11  and  _12
REMARK                            x       y       z     vdW  Elec       q    Type
REMARK                         _______ _______ _______ _____ _____    ______ ____
ROOT
ATOM      1  C   UNL     1     -13.477   2.438 -17.488  0.00  0.00    +0.098 A 
ATOM      2  C   UNL     1     -12.663   1.611 -18.183  0.00  0.00    +0.053 A 
ATOM      3  N   UNL     1     -12.812   1.503 -19.567  0.00  0.00    -0.339 N 
ATOM      4  H   UNL     1     -12.143   0.927 -20.065  0.00  0.00    +0.167 HD
ATOM      5  C   UNL     1     -13.762   2.185 -20.247  0.00  0.00    +0.139 A 
ATOM      6  C   UNL     1     -14.140   2.243 -21.562  0.00  0.00    +0.079 A 
ATOM      7  C   UNL     1     -15.211   3.171 -21.585  0.00  0.00    +0.130 A 
ATOM      8  N   UNL     1     -15.481   3.663 -20.367  0.00  0.00    -0.159 NA
ATOM      9  N   UNL     1     -14.592   3.041 -19.554  0.00  0.00    -0.179 N 
ATOM     10  C   UNL     1     -14.525   3.247 -18.171  0.00  0.00    +0.275 A 
ATOM     11  O   UNL     1     -15.265   4.022 -17.580  0.00  0.00    -0.266 OA
ENDROOT
BRANCH   2  12
ATOM     12  C   UNL     1     -11.603   0.790 -17.498  0.00  0.00    -0.001 A 
ATOM     13  C   UNL     1     -10.228   1.044 -17.684  0.00  0.00    +0.010 A 
ATOM     14  C   UNL     1      -9.240   0.286 -17.043  0.00  0.00    +0.001 A 
ATOM     15  C   UNL     1      -9.596  -0.762 -16.205  0.00  0.00    +0.000 A 
ATOM     16  C   UNL     1     -10.940  -1.044 -16.003  0.00  0.00    +0.001 A 
ATOM     17  C   UNL     1     -11.928  -0.273 -16.633  0.00  0.00    +0.010 A 
ENDBRANCH   2  12
BRANCH   7  18
ATOM     18  C   UNL     1     -15.987   3.594 -22.793  0.00  0.00    +0.155 A 
ATOM     19  C   UNL     1     -16.732   2.778 -23.625  0.00  0.00    +0.051 A 
ATOM     20  C   UNL     1     -17.288   3.609 -24.630  0.00  0.00    +0.042 A 
ATOM     21  C   UNL     1     -16.850   4.881 -24.356  0.00  0.00    +0.196 A 
ATOM     22  O   UNL     1     -16.067   4.883 -23.248  0.00  0.00    -0.461 OA
ENDBRANCH   7  18
TORSDOF 2
ENDMDL
MODEL 8
REMARK VINA RESULT:      -7.0      2.421      3.049
REMARK  Name = min_compound970.pdb
REMARK  2 active torsions:
REMARK  status: ('A' for Active; 'I' for Inactive)
REMARK    1  A    between atoms: _2  and  _17
REMARK    2  A    between atoms: _11  and  _12
REMARK                            x       y       z     vdW  Elec       q    Type
REMARK                         _______ _______ _______ _____ _____    ______ ____
ROOT
ATOM      1  C   UNL     1     -14.060   3.275 -15.231  0.00  0.00    +0.098 A 
ATOM      2  C   UNL     1     -13.165   3.448 -16.230  0.00  0.00    +0.053 A 
ATOM      3  N   UNL     1     -13.118   4.667 -16.908  0.00  0.00    -0.339 N 
ATOM      4  H   UNL     1     -12.391   4.786 -17.604  0.00  0.00    +0.167 HD
ATOM      5  C   UNL     1     -13.957   5.688 -16.617  0.00  0.00    +0.139 A 
ATOM      6  C   UNL     1     -14.145   6.944 -17.129  0.00  0.00    +0.079 A 
ATOM      7  C   UNL     1     -15.193   7.494 -16.348  0.00  0.00    +0.130 A 
ATOM      8  N   UNL     1     -15.627   6.640 -15.410  0.00  0.00    -0.159 NA
ATOM      9  N   UNL     1     -14.867   5.531 -15.594  0.00  0.00    -0.179 N 
ATOM     10  C   UNL     1     -14.993   4.365 -14.831  0.00  0.00    +0.275 A 
ATOM     11  O   UNL     1     -15.802   4.255 -13.918  0.00  0.00    -0.266 OA
ENDROOT
BRANCH   2  12
ATOM     12  C   UNL     1     -12.219   2.349 -16.638  0.00  0.00    -0.001 A 
ATOM     13  C   UNL     1     -12.606   0.993 -16.633  0.00  0.00    +0.010 A 
ATOM     14  C   UNL     1     -11.730  -0.030 -17.018  0.00  0.00    +0.001 A 
ATOM     15  C   UNL     1     -10.432   0.270 -17.407  0.00  0.00    +0.000 A 
ATOM     16  C   UNL     1     -10.015   1.594 -17.419  0.00  0.00    +0.001 A 
ATOM     17  C   UNL     1     -10.899   2.618 -17.048  0.00  0.00    +0.010 A 
ENDBRANCH   2  12
BRANCH   7  18
ATOM     18  C   UNL     1     -15.787   8.859 -16.504  0.00  0.00    +0.155 A 
ATOM     19  C   UNL     1     -16.277   9.420 -17.669  0.00  0.00    +0.051 A 
ATOM     20  C   UNL     1     -16.738  10.720 -17.341  0.00  0.00    +0.042 A 
ATOM     21  C   UNL     1     -16.501  10.877 -15.997  0.00  0.00    +0.196 A 
ATOM     22  O   UNL     1     -15.931   9.760 -15.482  0.00  0.00    -0.461 OA
ENDBRANCH   7  18
TORSDOF 2
ENDMDL
MODEL 9
REMARK VINA RESULT:      -6.9      2.507      7.906
REMARK  Name = min_compound970.pdb
REMARK  2 active torsions:
REMARK  status: ('A' for Active; 'I' for Inactive)
REMARK    1  A    between atoms: _2  and  _17
REMARK    2  A    between atoms: _11  and  _12
REMARK                            x       y       z     vdW  Elec       q    Type
REMARK                         _______ _______ _______ _____ _____    ______ ____
ROOT
ATOM      1  C   UNL     1     -15.675   4.568 -15.613  0.00  0.00    +0.098 A 
ATOM      2  C   UNL     1     -14.879   5.573 -16.042  0.00  0.00    +0.053 A 
ATOM      3  N   UNL     1     -13.598   5.283 -16.514  0.00  0.00    -0.339 N 
ATOM      4  H   UNL     1     -13.054   6.051 -16.890  0.00  0.00    +0.167 HD
ATOM      5  C   UNL     1     -13.106   4.023 -16.540  0.00  0.00    +0.139 A 
ATOM      6  C   UNL     1     -11.908   3.473 -16.911  0.00  0.00    +0.079 A 
ATOM      7  C   UNL     1     -12.070   2.083 -16.688  0.00  0.00    +0.130 A 
ATOM      8  N   UNL     1     -13.287   1.784 -16.213  0.00  0.00    -0.159 NA
ATOM      9  N   UNL     1     -13.909   2.985 -16.116  0.00  0.00    -0.179 N 
ATOM     10  C   UNL     1     -15.216   3.151 -15.643  0.00  0.00    +0.275 A 
ATOM     11  O   UNL     1     -15.914   2.211 -15.284  0.00  0.00    -0.266 OA
ENDROOT
BRANCH   2  12
ATOM     12  C   UNL     1     -15.338   7.007 -16.013  0.00  0.00    -0.001 A 
ATOM     13  C   UNL     1     -15.490   7.765 -17.193  0.00  0.00    +0.010 A 
ATOM     14  C   UNL     1     -15.923   9.097 -17.170  0.00  0.00    +0.001 A 
ATOM     15  C   UNL     1     -16.204   9.719 -15.961  0.00  0.00    +0.000 A 
ATOM     16  C   UNL     1     -16.060   9.006 -14.779  0.00  0.00    +0.001 A 
ATOM     17  C   UNL     1     -15.642   7.668 -14.807  0.00  0.00    +0.010 A 
ENDBRANCH   2  12
BRANCH   7  18
ATOM     18  C   UNL     1     -11.041   1.024 -16.935  0.00  0.00    +0.155 A 
ATOM     19  C   UNL     1     -11.197  -0.340 -16.758  0.00  0.00    +0.051 A 
ATOM     20  C   UNL     1      -9.967  -0.947 -17.115  0.00  0.00    +0.042 A 
ATOM     21  C   UNL     1      -9.132   0.078 -17.487  0.00  0.00    +0.196 A 
ATOM     22  O   UNL     1      -9.771   1.270 -17.385  0.00  0.00    -0.461 OA
ENDBRANCH   7  18
TORSDOF 2
ENDMDL
