MODEL 1
REMARK VINA RESULT:      -7.7      0.000      0.000
REMARK  Name = min_compound928.pdb
REMARK  5 active torsions:
REMARK  status: ('A' for Active; 'I' for Inactive)
REMARK    1  A    between atoms: _2  and  _4
REMARK    2  A    between atoms: _2  and  _19
REMARK    3  A    between atoms: _3  and  _20
REMARK    4  A    between atoms: _6  and  _21
REMARK    5  A    between atoms: _18  and  _19
REMARK                            x       y       z     vdW  Elec       q    Type
REMARK                         _______ _______ _______ _____ _____    ______ ____
ROOT
ATOM      1  C   UNL     1     -14.872  -3.673  -2.020  0.00  0.00    +0.119 A 
ATOM      2  C   UNL     1     -13.496  -4.166  -1.723  0.00  0.00    +0.266 A 
ATOM      3  N   UNL     1     -13.295  -5.496  -1.951  0.00  0.00    -0.274 N 
ATOM      4  C   UNL     1     -14.294  -6.413  -2.027  0.00  0.00    +0.330 A 
ATOM      5  O   UNL     1     -14.028  -7.614  -1.937  0.00  0.00    -0.246 OA
ATOM      6  N   UNL     1     -15.574  -5.911  -2.193  0.00  0.00    -0.285 N 
ATOM      7  C   UNL     1     -16.725  -6.866  -2.305  0.00  0.00    +0.155 C 
ATOM      8  H   UNL     1     -12.381  -5.844  -1.723  0.00  0.00    +0.173 HD
ATOM      9  O   UNL     1     -12.573  -3.488  -1.279  0.00  0.00    -0.267 OA
ATOM     10  C   UNL     1     -15.857  -4.570  -2.269  0.00  0.00    +0.116 A 
ENDROOT
BRANCH  10  11
ATOM     11  N   UNL     1     -17.175  -4.179  -2.557  0.00  0.00    -0.344 N 
ATOM     12  H   UNL     1     -17.579  -4.883  -3.164  0.00  0.00    +0.144 HD
ATOM     13  H   UNL     1     -17.082  -3.340  -3.157  0.00  0.00    +0.144 HD
ENDBRANCH  10  11
BRANCH   1  15
ATOM     14  O   UNL     1     -15.219  -1.905  -0.527  0.00  0.00    -0.292 OA
ATOM     15  C   UNL     1     -15.205  -2.275  -1.740  0.00  0.00    +0.172 C 
BRANCH  15  16
ATOM     16  C   UNL     1     -14.591  -1.027  -3.111  0.00  0.00    +0.084 C 
BRANCH  16  17
ATOM     17  C   UNL     1     -15.141   0.619  -3.611  0.00  0.00    +0.004 C 
ATOM     18  C   UNL     1     -13.495   0.483  -2.915  0.00  0.00    +0.000 C 
ATOM     19  C   UNL     1     -14.591  -1.027  -3.111  0.00  0.00    +0.031 C 
ATOM     20  C   UNL     1     -14.932  -1.475  -4.918  0.00  0.00    -0.031 C 
ATOM     21  C   UNL     1     -14.379  -0.658  -5.911  0.00  0.00    -0.031 C 
ATOM     22  C   UNL     1     -13.804   0.602  -5.468  0.00  0.00    +0.031 C 
ATOM     23  C   UNL     1     -13.818   1.167  -4.071  0.00  0.00    +0.000 C 
ENDBRANCH  16  17
ENDBRANCH  15  16
ENDBRANCH   1  15
TORSDOF 4
ENDMDL
MODEL 2
REMARK VINA RESULT:      -7.7     14.729     17.021
REMARK  Name = min_compound928.pdb
REMARK  5 active torsions:
REMARK  status: ('A' for Active; 'I' for Inactive)
REMARK    1  A    between atoms: _2  and  _4
REMARK    2  A    between atoms: _2  and  _19
REMARK    3  A    between atoms: _3  and  _20
REMARK    4  A    between atoms: _6  and  _21
REMARK    5  A    between atoms: _18  and  _19
REMARK                            x       y       z     vdW  Elec       q    Type
REMARK                         _______ _______ _______ _____ _____    ______ ____
ROOT
ATOM      1  C   UNL     1     -12.735   4.063 -17.267  0.00  0.00    +0.119 A 
ATOM      2  C   UNL     1     -11.591   5.021 -17.233  0.00  0.00    +0.266 A 
ATOM      3  N   UNL     1     -11.561   5.925 -18.254  0.00  0.00    -0.274 N 
ATOM      4  C   UNL     1     -12.217   5.762 -19.433  0.00  0.00    +0.330 A 
ATOM      5  O   UNL     1     -11.911   6.461 -20.402  0.00  0.00    -0.246 OA
ATOM      6  N   UNL     1     -13.200   4.787 -19.456  0.00  0.00    -0.285 N 
ATOM      7  C   UNL     1     -13.978   4.564 -20.719  0.00  0.00    +0.155 C 
ATOM      8  H   UNL     1     -10.777   6.553 -18.257  0.00  0.00    +0.173 HD
ATOM      9  O   UNL     1     -10.692   5.033 -16.396  0.00  0.00    -0.267 OA
ATOM     10  C   UNL     1     -13.513   4.002 -18.375  0.00  0.00    +0.116 A 
ENDROOT
BRANCH  10  11
ATOM     11  N   UNL     1     -14.606   3.127 -18.477  0.00  0.00    -0.344 N 
ATOM     12  H   UNL     1     -14.393   2.453 -19.204  0.00  0.00    +0.144 HD
ATOM     13  H   UNL     1     -15.375   3.700 -18.871  0.00  0.00    +0.144 HD
ENDBRANCH  10  11
BRANCH   1  15
ATOM     14  O   UNL     1     -13.936   2.809 -15.700  0.00  0.00    -0.292 OA
ATOM     15  C   UNL     1     -12.813   3.010 -16.254  0.00  0.00    +0.172 C 
BRANCH  15  16
ATOM     16  C   UNL     1     -11.635   1.491 -16.601  0.00  0.00    +0.084 C 
BRANCH  16  17
ATOM     17  C   UNL     1     -10.830   0.288 -15.521  0.00  0.00    +0.004 C 
ATOM     18  C   UNL     1     -12.218  -0.289 -16.497  0.00  0.00    +0.000 C 
ATOM     19  C   UNL     1     -11.635   1.491 -16.601  0.00  0.00    +0.031 C 
ATOM     20  C   UNL     1      -9.910   1.672 -17.358  0.00  0.00    -0.031 C 
ATOM     21  C   UNL     1      -9.236   0.505 -17.738  0.00  0.00    -0.031 C 
ATOM     22  C   UNL     1      -9.811  -0.752 -17.287  0.00  0.00    +0.031 C 
ATOM     23  C   UNL     1     -11.001  -0.934 -16.380  0.00  0.00    +0.000 C 
ENDBRANCH  16  17
ENDBRANCH  15  16
ENDBRANCH   1  15
TORSDOF 4
ENDMDL
MODEL 3
REMARK VINA RESULT:      -7.6     15.064     17.229
REMARK  Name = min_compound928.pdb
REMARK  5 active torsions:
REMARK  status: ('A' for Active; 'I' for Inactive)
REMARK    1  A    between atoms: _2  and  _4
REMARK    2  A    between atoms: _2  and  _19
REMARK    3  A    between atoms: _3  and  _20
REMARK    4  A    between atoms: _6  and  _21
REMARK    5  A    between atoms: _18  and  _19
REMARK                            x       y       z     vdW  Elec       q    Type
REMARK                         _______ _______ _______ _____ _____    ______ ____
ROOT
ATOM      1  C   UNL     1     -12.972   4.220 -17.590  0.00  0.00    +0.119 A 
ATOM      2  C   UNL     1     -11.847   5.200 -17.551  0.00  0.00    +0.266 A 
ATOM      3  N   UNL     1     -11.753   6.018 -18.639  0.00  0.00    -0.274 N 
ATOM      4  C   UNL     1     -12.315   5.746 -19.845  0.00  0.00    +0.330 A 
ATOM      5  O   UNL     1     -11.947   6.368 -20.844  0.00  0.00    -0.246 OA
ATOM      6  N   UNL     1     -13.281   4.752 -19.860  0.00  0.00    -0.285 N 
ATOM      7  C   UNL     1     -13.959   4.412 -21.154  0.00  0.00    +0.155 C 
ATOM      8  H   UNL     1     -10.979   6.658 -18.636  0.00  0.00    +0.173 HD
ATOM      9  O   UNL     1     -11.014   5.298 -16.654  0.00  0.00    -0.267 OA
ATOM     10  C   UNL     1     -13.665   4.053 -18.743  0.00  0.00    +0.116 A 
ENDROOT
BRANCH  10  11
ATOM     11  N   UNL     1     -14.735   3.151 -18.853  0.00  0.00    -0.344 N 
ATOM     12  H   UNL     1     -15.155   3.283 -19.766  0.00  0.00    +0.144 HD
ATOM     13  H   UNL     1     -15.448   3.497 -18.185  0.00  0.00    +0.144 HD
ENDBRANCH  10  11
BRANCH   1  15
ATOM     14  O   UNL     1     -14.268   3.092 -16.001  0.00  0.00    -0.292 OA
ATOM     15  C   UNL     1     -13.113   3.252 -16.501  0.00  0.00    +0.172 C 
BRANCH  15  16
ATOM     16  C   UNL     1     -11.917   1.716 -16.650  0.00  0.00    +0.084 C 
BRANCH  16  17
ATOM     17  C   UNL     1     -10.945   1.042 -18.015  0.00  0.00    +0.004 C 
ATOM     18  C   UNL     1     -10.061   1.968 -16.761  0.00  0.00    +0.000 C 
ATOM     19  C   UNL     1     -11.917   1.716 -16.650  0.00  0.00    +0.031 C 
ATOM     20  C   UNL     1     -12.412  -0.089 -16.371  0.00  0.00    -0.031 C 
ATOM     21  C   UNL     1     -11.391  -1.045 -16.299  0.00  0.00    -0.031 C 
ATOM     22  C   UNL     1     -10.063  -0.606 -16.695  0.00  0.00    +0.031 C 
ATOM     23  C   UNL     1      -9.680   0.737 -17.261  0.00  0.00    +0.000 C 
ENDBRANCH  16  17
ENDBRANCH  15  16
ENDBRANCH   1  15
TORSDOF 4
ENDMDL
MODEL 4
REMARK VINA RESULT:      -7.5     13.898     15.256
REMARK  Name = min_compound928.pdb
REMARK  5 active torsions:
REMARK  status: ('A' for Active; 'I' for Inactive)
REMARK    1  A    between atoms: _2  and  _4
REMARK    2  A    between atoms: _2  and  _19
REMARK    3  A    between atoms: _3  and  _20
REMARK    4  A    between atoms: _6  and  _21
REMARK    5  A    between atoms: _18  and  _19
REMARK                            x       y       z     vdW  Elec       q    Type
REMARK                         _______ _______ _______ _____ _____    ______ ____
ROOT
ATOM      1  C   UNL     1     -14.740   3.473 -16.143  0.00  0.00    +0.119 A 
ATOM      2  C   UNL     1     -14.428   4.931 -16.192  0.00  0.00    +0.266 A 
ATOM      3  N   UNL     1     -15.093   5.697 -15.280  0.00  0.00    -0.274 N 
ATOM      4  C   UNL     1     -16.237   5.314 -14.655  0.00  0.00    +0.330 A 
ATOM      5  O   UNL     1     -16.930   6.157 -14.081  0.00  0.00    -0.246 OA
ATOM      6  N   UNL     1     -16.549   3.966 -14.725  0.00  0.00    -0.285 N 
ATOM      7  C   UNL     1     -17.789   3.468 -14.042  0.00  0.00    +0.155 C 
ATOM      8  H   UNL     1     -14.914   6.684 -15.327  0.00  0.00    +0.173 HD
ATOM      9  O   UNL     1     -13.664   5.474 -16.986  0.00  0.00    -0.267 OA
ATOM     10  C   UNL     1     -15.779   3.043 -15.386  0.00  0.00    +0.116 A 
ENDROOT
BRANCH  10  11
ATOM     11  N   UNL     1     -16.129   1.687 -15.292  0.00  0.00    -0.344 N 
ATOM     12  H   UNL     1     -17.141   1.628 -15.318  0.00  0.00    +0.144 HD
ATOM     13  H   UNL     1     -15.877   1.410 -14.325  0.00  0.00    +0.144 HD
ENDBRANCH  10  11
BRANCH   1  15
ATOM     14  O   UNL     1     -14.275   2.870 -18.356  0.00  0.00    -0.292 OA
ATOM     15  C   UNL     1     -14.130   2.579 -17.129  0.00  0.00    +0.172 C 
BRANCH  15  16
ATOM     16  C   UNL     1     -12.457   1.767 -16.533  0.00  0.00    +0.084 C 
BRANCH  16  17
ATOM     17  C   UNL     1     -10.754   1.883 -17.123  0.00  0.00    +0.004 C 
ATOM     18  C   UNL     1     -11.096   2.520 -15.483  0.00  0.00    +0.000 C 
ATOM     19  C   UNL     1     -12.457   1.767 -16.533  0.00  0.00    +0.031 C 
ATOM     20  C   UNL     1     -12.229  -0.087 -16.837  0.00  0.00    -0.031 C 
ATOM     21  C   UNL     1     -11.096  -0.705 -16.294  0.00  0.00    -0.031 C 
ATOM     22  C   UNL     1     -10.069   0.175 -15.762  0.00  0.00    +0.031 C 
ATOM     23  C   UNL     1     -10.048   1.682 -15.811  0.00  0.00    +0.000 C 
ENDBRANCH  16  17
ENDBRANCH  15  16
ENDBRANCH   1  15
TORSDOF 4
ENDMDL
MODEL 5
REMARK VINA RESULT:      -7.5     15.154     17.625
REMARK  Name = min_compound928.pdb
REMARK  5 active torsions:
REMARK  status: ('A' for Active; 'I' for Inactive)
REMARK    1  A    between atoms: _2  and  _4
REMARK    2  A    between atoms: _2  and  _19
REMARK    3  A    between atoms: _3  and  _20
REMARK    4  A    between atoms: _6  and  _21
REMARK    5  A    between atoms: _18  and  _19
REMARK                            x       y       z     vdW  Elec       q    Type
REMARK                         _______ _______ _______ _____ _____    ______ ____
ROOT
ATOM      1  C   UNL     1     -12.970   3.682 -18.414  0.00  0.00    +0.119 A 
ATOM      2  C   UNL     1     -13.585   3.371 -19.737  0.00  0.00    +0.266 A 
ATOM      3  N   UNL     1     -13.301   4.261 -20.732  0.00  0.00    -0.274 N 
ATOM      4  C   UNL     1     -12.872   5.532 -20.515  0.00  0.00    +0.330 A 
ATOM      5  O   UNL     1     -12.922   6.357 -21.430  0.00  0.00    -0.246 OA
ATOM      6  N   UNL     1     -12.409   5.811 -19.240  0.00  0.00    -0.285 N 
ATOM      7  C   UNL     1     -11.902   7.189 -18.933  0.00  0.00    +0.155 C 
ATOM      8  H   UNL     1     -13.737   4.077 -21.618  0.00  0.00    +0.173 HD
ATOM      9  O   UNL     1     -14.323   2.419 -19.978  0.00  0.00    -0.267 OA
ATOM     10  C   UNL     1     -12.380   4.888 -18.225  0.00  0.00    +0.116 A 
ENDROOT
BRANCH  10  11
ATOM     11  N   UNL     1     -11.781   5.249 -17.008  0.00  0.00    -0.344 N 
ATOM     12  H   UNL     1     -12.010   6.220 -16.828  0.00  0.00    +0.144 HD
ATOM     13  H   UNL     1     -10.763   5.253 -17.199  0.00  0.00    +0.144 HD
ENDBRANCH  10  11
BRANCH   1  15
ATOM     14  O   UNL     1     -14.495   2.616 -16.995  0.00  0.00    -0.292 OA
ATOM     15  C   UNL     1     -13.273   2.825 -17.267  0.00  0.00    +0.172 C 
BRANCH  15  16
ATOM     16  C   UNL     1     -11.975   1.393 -16.985  0.00  0.00    +0.084 C 
BRANCH  16  17
ATOM     17  C   UNL     1     -10.825   0.541 -18.086  0.00  0.00    +0.004 C 
ATOM     18  C   UNL     1     -10.140   1.785 -16.992  0.00  0.00    +0.000 C 
ATOM     19  C   UNL     1     -11.975   1.393 -16.985  0.00  0.00    +0.031 C 
ATOM     20  C   UNL     1     -12.366  -0.352 -16.365  0.00  0.00    -0.031 C 
ATOM     21  C   UNL     1     -11.292  -1.174 -16.003  0.00  0.00    -0.031 C 
ATOM     22  C   UNL     1      -9.965  -0.708 -16.372  0.00  0.00    +0.031 C 
ATOM     23  C   UNL     1      -9.624   0.518 -17.181  0.00  0.00    +0.000 C 
ENDBRANCH  16  17
ENDBRANCH  15  16
ENDBRANCH   1  15
TORSDOF 4
ENDMDL
MODEL 6
REMARK VINA RESULT:      -7.5     14.857     16.817
REMARK  Name = min_compound928.pdb
REMARK  5 active torsions:
REMARK  status: ('A' for Active; 'I' for Inactive)
REMARK    1  A    between atoms: _2  and  _4
REMARK    2  A    between atoms: _2  and  _19
REMARK    3  A    between atoms: _3  and  _20
REMARK    4  A    between atoms: _6  and  _21
REMARK    5  A    between atoms: _18  and  _19
REMARK                            x       y       z     vdW  Elec       q    Type
REMARK                         _______ _______ _______ _____ _____    ______ ____
ROOT
ATOM      1  C   UNL     1     -13.991   3.644 -18.068  0.00  0.00    +0.119 A 
ATOM      2  C   UNL     1     -14.978   3.603 -16.949  0.00  0.00    +0.266 A 
ATOM      3  N   UNL     1     -15.403   4.821 -16.507  0.00  0.00    -0.274 N 
ATOM      4  C   UNL     1     -14.731   5.983 -16.717  0.00  0.00    +0.330 A 
ATOM      5  O   UNL     1     -15.011   6.980 -16.047  0.00  0.00    -0.246 OA
ATOM      6  N   UNL     1     -13.745   5.952 -17.690  0.00  0.00    -0.285 N 
ATOM      7  C   UNL     1     -12.975   7.204 -17.989  0.00  0.00    +0.155 C 
ATOM      8  H   UNL     1     -16.042   4.804 -15.732  0.00  0.00    +0.173 HD
ATOM      9  O   UNL     1     -15.398   2.586 -16.402  0.00  0.00    -0.267 OA
ATOM     10  C   UNL     1     -13.430   4.829 -18.412  0.00  0.00    +0.116 A 
ENDROOT
BRANCH  10  11
ATOM     11  N   UNL     1     -12.495   4.943 -19.454  0.00  0.00    -0.344 N 
ATOM     12  H   UNL     1     -13.009   4.950 -20.328  0.00  0.00    +0.144 HD
ATOM     13  H   UNL     1     -11.985   4.041 -19.458  0.00  0.00    +0.144 HD
ENDBRANCH  10  11
BRANCH   1  15
ATOM     14  O   UNL     1     -13.327   2.242 -19.820  0.00  0.00    -0.292 OA
ATOM     15  C   UNL     1     -13.422   2.389 -18.564  0.00  0.00    +0.172 C 
BRANCH  15  16
ATOM     16  C   UNL     1     -12.040   1.637 -17.407  0.00  0.00    +0.084 C 
BRANCH  16  17
ATOM     17  C   UNL     1     -10.386   2.196 -16.943  0.00  0.00    +0.004 C 
ATOM     18  C   UNL     1     -11.676   2.343 -15.708  0.00  0.00    +0.000 C 
ATOM     19  C   UNL     1     -12.040   1.637 -17.407  0.00  0.00    +0.031 C 
ATOM     20  C   UNL     1     -11.176  -0.015 -17.732  0.00  0.00    -0.031 C 
ATOM     21  C   UNL     1     -10.354  -0.534 -16.725  0.00  0.00    -0.031 C 
ATOM     22  C   UNL     1     -10.036   0.360 -15.623  0.00  0.00    +0.031 C 
ATOM     23  C   UNL     1     -10.419   1.812 -15.490  0.00  0.00    +0.000 C 
ENDBRANCH  16  17
ENDBRANCH  15  16
ENDBRANCH   1  15
TORSDOF 4
ENDMDL
MODEL 7
REMARK VINA RESULT:      -7.5     14.556     16.613
REMARK  Name = min_compound928.pdb
REMARK  5 active torsions:
REMARK  status: ('A' for Active; 'I' for Inactive)
REMARK    1  A    between atoms: _2  and  _4
REMARK    2  A    between atoms: _2  and  _19
REMARK    3  A    between atoms: _3  and  _20
REMARK    4  A    between atoms: _6  and  _21
REMARK    5  A    between atoms: _18  and  _19
REMARK                            x       y       z     vdW  Elec       q    Type
REMARK                         _______ _______ _______ _____ _____    ______ ____
ROOT
ATOM      1  C   UNL     1     -12.226   2.615 -17.166  0.00  0.00    +0.119 A 
ATOM      2  C   UNL     1     -11.787   2.958 -15.782  0.00  0.00    +0.266 A 
ATOM      3  N   UNL     1     -10.777   2.186 -15.286  0.00  0.00    -0.274 N 
ATOM      4  C   UNL     1     -10.452   0.958 -15.768  0.00  0.00    +0.330 A 
ATOM      5  O   UNL     1      -9.742   0.207 -15.095  0.00  0.00    -0.246 OA
ATOM      6  N   UNL     1     -10.970   0.633 -17.011  0.00  0.00    -0.285 N 
ATOM      7  C   UNL     1     -10.637  -0.700 -17.614  0.00  0.00    +0.155 C 
ATOM      8  H   UNL     1     -10.497   2.389 -14.343  0.00  0.00    +0.173 HD
ATOM      9  O   UNL     1     -12.272   3.837 -15.074  0.00  0.00    -0.267 OA
ATOM     10  C   UNL     1     -11.777   1.471 -17.738  0.00  0.00    +0.116 A 
ENDROOT
BRANCH  10  11
ATOM     11  N   UNL     1     -12.147   1.085 -19.036  0.00  0.00    -0.344 N 
ATOM     12  H   UNL     1     -13.063   0.656 -18.980  0.00  0.00    +0.144 HD
ATOM     13  H   UNL     1     -11.508   0.305 -19.278  0.00  0.00    +0.144 HD
ENDBRANCH  10  11
BRANCH   1  15
ATOM     14  O   UNL     1     -14.445   3.354 -17.116  0.00  0.00    -0.292 OA
ATOM     15  C   UNL     1     -13.351   3.340 -17.758  0.00  0.00    +0.172 C 
BRANCH  15  16
ATOM     16  C   UNL     1     -12.823   4.919 -18.779  0.00  0.00    +0.084 C 
BRANCH  16  17
ATOM     17  C   UNL     1     -13.281   6.663 -18.671  0.00  0.00    +0.004 C 
ATOM     18  C   UNL     1     -11.802   6.150 -17.798  0.00  0.00    +0.000 C 
ATOM     19  C   UNL     1     -12.823   4.919 -18.779  0.00  0.00    +0.031 C 
ATOM     20  C   UNL     1     -12.799   5.243 -20.644  0.00  0.00    -0.031 C 
ATOM     21  C   UNL     1     -12.070   6.345 -21.107  0.00  0.00    -0.031 C 
ATOM     22  C   UNL     1     -11.606   7.286 -20.101  0.00  0.00    +0.031 C 
ATOM     23  C   UNL     1     -11.899   7.255 -18.623  0.00  0.00    +0.000 C 
ENDBRANCH  16  17
ENDBRANCH  15  16
ENDBRANCH   1  15
TORSDOF 4
ENDMDL
MODEL 8
REMARK VINA RESULT:      -7.4     13.833     15.056
REMARK  Name = min_compound928.pdb
REMARK  5 active torsions:
REMARK  status: ('A' for Active; 'I' for Inactive)
REMARK    1  A    between atoms: _2  and  _4
REMARK    2  A    between atoms: _2  and  _19
REMARK    3  A    between atoms: _3  and  _20
REMARK    4  A    between atoms: _6  and  _21
REMARK    5  A    between atoms: _18  and  _19
REMARK                            x       y       z     vdW  Elec       q    Type
REMARK                         _______ _______ _______ _____ _____    ______ ____
ROOT
ATOM      1  C   UNL     1     -11.757   2.943 -16.958  0.00  0.00    +0.119 A 
ATOM      2  C   UNL     1     -10.887   3.197 -15.773  0.00  0.00    +0.266 A 
ATOM      3  N   UNL     1      -9.988   2.210 -15.492  0.00  0.00    -0.274 N 
ATOM      4  C   UNL     1     -10.103   0.929 -15.931  0.00  0.00    +0.330 A 
ATOM      5  O   UNL     1      -9.430   0.041 -15.404  0.00  0.00    -0.246 OA
ATOM      6  N   UNL     1     -11.003   0.716 -16.963  0.00  0.00    -0.285 N 
ATOM      7  C   UNL     1     -11.167  -0.670 -17.512  0.00  0.00    +0.155 C 
ATOM      8  H   UNL     1      -9.421   2.357 -14.676  0.00  0.00    +0.173 HD
ATOM      9  O   UNL     1     -10.941   4.183 -15.043  0.00  0.00    -0.267 OA
ATOM     10  C   UNL     1     -11.760   1.712 -17.525  0.00  0.00    +0.116 A 
ENDROOT
BRANCH  10  11
ATOM     11  N   UNL     1     -12.552   1.401 -18.642  0.00  0.00    -0.344 N 
ATOM     12  H   UNL     1     -13.290   2.094 -18.698  0.00  0.00    +0.144 HD
ATOM     13  H   UNL     1     -13.038   0.521 -18.392  0.00  0.00    +0.144 HD
ENDBRANCH  10  11
BRANCH   1  15
ATOM     14  O   UNL     1     -12.988   4.170 -18.525  0.00  0.00    -0.292 OA
ATOM     15  C   UNL     1     -12.800   3.912 -17.297  0.00  0.00    +0.172 C 
BRANCH  15  16
ATOM     16  C   UNL     1     -14.331   3.880 -16.085  0.00  0.00    +0.084 C 
BRANCH  16  17
ATOM     17  C   UNL     1     -14.487   4.067 -14.295  0.00  0.00    +0.004 C 
ATOM     18  C   UNL     1     -15.278   5.307 -15.318  0.00  0.00    +0.000 C 
ATOM     19  C   UNL     1     -14.331   3.880 -16.085  0.00  0.00    +0.031 C 
ATOM     20  C   UNL     1     -15.140   2.196 -15.782  0.00  0.00    -0.031 C 
ATOM     21  C   UNL     1     -16.315   2.162 -15.021  0.00  0.00    -0.031 C 
ATOM     22  C   UNL     1     -16.671   3.385 -14.321  0.00  0.00    +0.031 C 
ATOM     23  C   UNL     1     -15.868   4.659 -14.250  0.00  0.00    +0.000 C 
ENDBRANCH  16  17
ENDBRANCH  15  16
ENDBRANCH   1  15
TORSDOF 4
ENDMDL
MODEL 9
REMARK VINA RESULT:      -7.3     15.139     16.674
REMARK  Name = min_compound928.pdb
REMARK  5 active torsions:
REMARK  status: ('A' for Active; 'I' for Inactive)
REMARK    1  A    between atoms: _2  and  _4
REMARK    2  A    between atoms: _2  and  _19
REMARK    3  A    between atoms: _3  and  _20
REMARK    4  A    between atoms: _6  and  _21
REMARK    5  A    between atoms: _18  and  _19
REMARK                            x       y       z     vdW  Elec       q    Type
REMARK                         _______ _______ _______ _____ _____    ______ ____
ROOT
ATOM      1  C   UNL     1     -13.716   4.071 -17.542  0.00  0.00    +0.119 A 
ATOM      2  C   UNL     1     -12.753   5.154 -17.897  0.00  0.00    +0.266 A 
ATOM      3  N   UNL     1     -13.075   6.393 -17.425  0.00  0.00    -0.274 N 
ATOM      4  C   UNL     1     -14.325   6.758 -17.039  0.00  0.00    +0.330 A 
ATOM      5  O   UNL     1     -14.599   7.953 -16.909  0.00  0.00    -0.246 OA
ATOM      6  N   UNL     1     -15.224   5.726 -16.824  0.00  0.00    -0.285 N 
ATOM      7  C   UNL     1     -16.618   6.054 -16.376  0.00  0.00    +0.155 C 
ATOM      8  H   UNL     1     -12.450   7.134 -17.687  0.00  0.00    +0.173 HD
ATOM      9  O   UNL     1     -11.743   5.018 -18.582  0.00  0.00    -0.267 OA
ATOM     10  C   UNL     1     -14.911   4.401 -16.993  0.00  0.00    +0.116 A 
ENDROOT
BRANCH  10  11
ATOM     11  N   UNL     1     -15.865   3.436 -16.633  0.00  0.00    -0.344 N 
ATOM     12  H   UNL     1     -16.726   3.922 -16.413  0.00  0.00    +0.144 HD
ATOM     13  H   UNL     1     -15.538   3.060 -15.725  0.00  0.00    +0.144 HD
ENDBRANCH  10  11
BRANCH   1  15
ATOM     14  O   UNL     1     -13.665   2.533 -19.305  0.00  0.00    -0.292 OA
ATOM     15  C   UNL     1     -13.495   2.721 -18.062  0.00  0.00    +0.172 C 
BRANCH  15  16
ATOM     16  C   UNL     1     -12.085   1.738 -17.134  0.00  0.00    +0.084 C 
BRANCH  16  17
ATOM     17  C   UNL     1     -10.320   2.042 -16.904  0.00  0.00    +0.004 C 
ATOM     18  C   UNL     1     -11.397   2.384 -15.513  0.00  0.00    +0.000 C 
ATOM     19  C   UNL     1     -12.085   1.738 -17.134  0.00  0.00    +0.031 C 
ATOM     20  C   UNL     1     -11.529  -0.027 -17.533  0.00  0.00    -0.031 C 
ATOM     21  C   UNL     1     -10.666  -0.661 -16.632  0.00  0.00    -0.031 C 
ATOM     22  C   UNL     1     -10.074   0.177 -15.601  0.00  0.00    +0.031 C 
ATOM     23  C   UNL     1     -10.216   1.670 -15.451  0.00  0.00    +0.000 C 
ENDBRANCH  16  17
ENDBRANCH  15  16
ENDBRANCH   1  15
TORSDOF 4
ENDMDL
