MODEL 1
REMARK VINA RESULT:      -6.9      0.000      0.000
REMARK  Name = min_compound973.pdb
REMARK  5 active torsions:
REMARK  status: ('A' for Active; 'I' for Inactive)
REMARK    1  A    between atoms: _1  and  _2
REMARK    2  A    between atoms: _1  and  _12
REMARK    3  A    between atoms: _2  and  _13
REMARK    4  A    between atoms: _11  and  _19
REMARK    5  A    between atoms: _18  and  _20
REMARK                            x       y       z     vdW  Elec       q    Type
REMARK                         _______ _______ _______ _____ _____    ______ ____
ROOT
ATOM      1  C   UNL     1     -12.679   5.560 -17.636  0.00  0.00    +0.115 A 
ATOM      2  C   UNL     1     -12.713   6.952 -17.857  0.00  0.00    +0.141 A 
ATOM      3  C   UNL     1     -13.850   7.713 -17.581  0.00  0.00    +0.049 A 
ATOM      4  C   UNL     1     -15.009   7.109 -17.081  0.00  0.00    +0.033 A 
ATOM      5  C   UNL     1     -14.964   5.726 -16.889  0.00  0.00    +0.088 A 
ATOM      6  N   UNL     1     -15.882   4.819 -16.432  0.00  0.00    -0.257 N 
ATOM      7  N   UNL     1     -15.393   3.571 -16.423  0.00  0.00    -0.067 NA
ATOM      8  N   UNL     1     -14.141   3.630 -16.863  0.00  0.00    -0.128 NA
ATOM      9  H   UNL     1     -16.831   4.973 -16.120  0.00  0.00    +0.191 HD
ATOM     10  C   UNL     1     -13.845   4.940 -17.154  0.00  0.00    +0.138 A 
ENDROOT
BRANCH   1  11
ATOM     11  N   UNL     1     -11.537   4.791 -17.907  0.00  0.00    -0.261 N 
ATOM     12  H   UNL     1     -11.264   4.472 -18.797  0.00  0.00    +0.170 HD
BRANCH  11  13
ATOM     13  N   UNL     1     -10.920   4.576 -16.840  0.00  0.00    -0.266 N 
ATOM     14  H   UNL     1     -10.671   5.268 -16.187  0.00  0.00    +0.170 HD
BRANCH  13  15
ATOM     15  C   UNL     1     -10.633   3.205 -16.705  0.00  0.00    +0.044 A 
ATOM     16  C   UNL     1     -10.124   2.417 -17.742  0.00  0.00    +0.025 A 
ATOM     17  C   UNL     1      -9.804   1.073 -17.518  0.00  0.00    +0.005 A 
ATOM     18  C   UNL     1     -10.008   0.493 -16.259  0.00  0.00    -0.050 A 
ATOM     19  C   UNL     1      -9.599  -0.923 -15.986  0.00  0.00    +0.044 C 
ATOM     20  C   UNL     1     -10.537   1.276 -15.228  0.00  0.00    +0.005 A 
ATOM     21  C   UNL     1     -10.853   2.616 -15.456  0.00  0.00    +0.025 A 
ENDBRANCH  13  15
ENDBRANCH  11  13
ENDBRANCH   1  11
BRANCH   2  22
ATOM     22  O   UNL     1     -11.590   7.567 -18.350  0.00  0.00    -0.505 OA
ATOM     23  H   UNL     1     -11.453   8.412 -17.895  0.00  0.00    +0.292 HD
ENDBRANCH   2  22
TORSDOF 4
ENDMDL
MODEL 2
REMARK VINA RESULT:      -6.8      3.512      5.921
REMARK  Name = min_compound973.pdb
REMARK  5 active torsions:
REMARK  status: ('A' for Active; 'I' for Inactive)
REMARK    1  A    between atoms: _1  and  _2
REMARK    2  A    between atoms: _1  and  _12
REMARK    3  A    between atoms: _2  and  _13
REMARK    4  A    between atoms: _11  and  _19
REMARK    5  A    between atoms: _18  and  _20
REMARK                            x       y       z     vdW  Elec       q    Type
REMARK                         _______ _______ _______ _____ _____    ______ ____
ROOT
ATOM      1  C   UNL     1     -12.522   2.566 -16.736  0.00  0.00    +0.115 A 
ATOM      2  C   UNL     1     -11.395   3.349 -17.060  0.00  0.00    +0.141 A 
ATOM      3  C   UNL     1     -10.142   2.778 -17.284  0.00  0.00    +0.049 A 
ATOM      4  C   UNL     1      -9.960   1.394 -17.180  0.00  0.00    +0.033 A 
ATOM      5  C   UNL     1     -11.082   0.636 -16.837  0.00  0.00    +0.088 A 
ATOM      6  N   UNL     1     -11.277  -0.705 -16.646  0.00  0.00    -0.257 N 
ATOM      7  N   UNL     1     -12.545  -0.985 -16.313  0.00  0.00    -0.067 NA
ATOM      8  N   UNL     1     -13.214   0.162 -16.288  0.00  0.00    -0.128 NA
ATOM      9  H   UNL     1     -10.614  -1.464 -16.722  0.00  0.00    +0.191 HD
ATOM     10  C   UNL     1     -12.346   1.177 -16.609  0.00  0.00    +0.138 A 
ENDROOT
BRANCH   1  11
ATOM     11  N   UNL     1     -13.785   3.135 -16.516  0.00  0.00    -0.261 N 
ATOM     12  H   UNL     1     -14.600   2.928 -17.028  0.00  0.00    +0.170 HD
BRANCH  11  13
ATOM     13  N   UNL     1     -13.714   3.948 -15.567  0.00  0.00    -0.266 N 
ATOM     14  H   UNL     1     -13.010   4.629 -15.463  0.00  0.00    +0.170 HD
BRANCH  13  15
ATOM     15  C   UNL     1     -14.779   3.752 -14.669  0.00  0.00    +0.044 A 
ATOM     16  C   UNL     1     -15.789   2.805 -14.863  0.00  0.00    +0.025 A 
ATOM     17  C   UNL     1     -16.786   2.625 -13.897  0.00  0.00    +0.005 A 
ATOM     18  C   UNL     1     -16.797   3.404 -12.733  0.00  0.00    -0.050 A 
ATOM     19  C   UNL     1     -17.814   3.167 -11.657  0.00  0.00    +0.044 C 
ATOM     20  C   UNL     1     -15.799   4.366 -12.549  0.00  0.00    +0.005 A 
ATOM     21  C   UNL     1     -14.807   4.541 -13.514  0.00  0.00    +0.025 A 
ENDBRANCH  13  15
ENDBRANCH  11  13
ENDBRANCH   1  11
BRANCH   2  22
ATOM     22  O   UNL     1     -11.547   4.709 -17.164  0.00  0.00    -0.505 OA
ATOM     23  H   UNL     1     -10.875   5.156 -16.628  0.00  0.00    +0.292 HD
ENDBRANCH   2  22
TORSDOF 4
ENDMDL
MODEL 3
REMARK VINA RESULT:      -6.8     14.997     17.038
REMARK  Name = min_compound973.pdb
REMARK  5 active torsions:
REMARK  status: ('A' for Active; 'I' for Inactive)
REMARK    1  A    between atoms: _1  and  _2
REMARK    2  A    between atoms: _1  and  _12
REMARK    3  A    between atoms: _2  and  _13
REMARK    4  A    between atoms: _11  and  _19
REMARK    5  A    between atoms: _18  and  _20
REMARK                            x       y       z     vdW  Elec       q    Type
REMARK                         _______ _______ _______ _____ _____    ______ ____
ROOT
ATOM      1  C   UNL     1     -14.602  -3.492  -1.666  0.00  0.00    +0.115 A 
ATOM      2  C   UNL     1     -13.435  -4.237  -1.400  0.00  0.00    +0.141 A 
ATOM      3  C   UNL     1     -13.409  -5.628  -1.509  0.00  0.00    +0.049 A 
ATOM      4  C   UNL     1     -14.558  -6.337  -1.880  0.00  0.00    +0.033 A 
ATOM      5  C   UNL     1     -15.711  -5.584  -2.119  0.00  0.00    +0.088 A 
ATOM      6  N   UNL     1     -16.984  -5.923  -2.485  0.00  0.00    -0.257 N 
ATOM      7  N   UNL     1     -17.778  -4.849  -2.594  0.00  0.00    -0.067 NA
ATOM      8  N   UNL     1     -17.044  -3.779  -2.312  0.00  0.00    -0.128 NA
ATOM      9  H   UNL     1     -17.373  -6.838  -2.673  0.00  0.00    +0.191 HD
ATOM     10  C   UNL     1     -15.767  -4.195  -2.019  0.00  0.00    +0.138 A 
ENDROOT
BRANCH   1  11
ATOM     11  N   UNL     1     -14.632  -2.094  -1.563  0.00  0.00    -0.261 N 
ATOM     12  H   UNL     1     -15.113  -1.584  -0.872  0.00  0.00    +0.170 HD
BRANCH  11  13
ATOM     13  N   UNL     1     -13.951  -1.596  -2.488  0.00  0.00    -0.266 N 
ATOM     14  H   UNL     1     -13.115  -1.980  -2.839  0.00  0.00    +0.170 HD
BRANCH  13  15
ATOM     15  C   UNL     1     -14.545  -0.409  -2.954  0.00  0.00    +0.044 A 
ATOM     16  C   UNL     1     -15.923  -0.259  -3.146  0.00  0.00    +0.025 A 
ATOM     17  C   UNL     1     -16.450   0.971  -3.556  0.00  0.00    +0.005 A 
ATOM     18  C   UNL     1     -15.605   2.062  -3.800  0.00  0.00    -0.050 A 
ATOM     19  C   UNL     1     -16.164   3.404  -4.165  0.00  0.00    +0.044 C 
ATOM     20  C   UNL     1     -14.226   1.905  -3.629  0.00  0.00    +0.005 A 
ATOM     21  C   UNL     1     -13.705   0.677  -3.219  0.00  0.00    +0.025 A 
ENDBRANCH  13  15
ENDBRANCH  11  13
ENDBRANCH   1  11
BRANCH   2  22
ATOM     22  O   UNL     1     -12.296  -3.566  -1.031  0.00  0.00    -0.505 OA
ATOM     23  H   UNL     1     -12.302  -3.412  -0.074  0.00  0.00    +0.292 HD
ENDBRANCH   2  22
TORSDOF 4
ENDMDL
MODEL 4
REMARK VINA RESULT:      -6.6      1.907      2.935
REMARK  Name = min_compound973.pdb
REMARK  5 active torsions:
REMARK  status: ('A' for Active; 'I' for Inactive)
REMARK    1  A    between atoms: _1  and  _2
REMARK    2  A    between atoms: _1  and  _12
REMARK    3  A    between atoms: _2  and  _13
REMARK    4  A    between atoms: _11  and  _19
REMARK    5  A    between atoms: _18  and  _20
REMARK                            x       y       z     vdW  Elec       q    Type
REMARK                         _______ _______ _______ _____ _____    ______ ____
ROOT
ATOM      1  C   UNL     1     -14.164   5.061 -16.635  0.00  0.00    +0.115 A 
ATOM      2  C   UNL     1     -15.077   5.901 -15.966  0.00  0.00    +0.141 A 
ATOM      3  C   UNL     1     -15.146   7.270 -16.230  0.00  0.00    +0.049 A 
ATOM      4  C   UNL     1     -14.293   7.860 -17.170  0.00  0.00    +0.033 A 
ATOM      5  C   UNL     1     -13.380   7.015 -17.807  0.00  0.00    +0.088 A 
ATOM      6  N   UNL     1     -12.414   7.232 -18.752  0.00  0.00    -0.257 N 
ATOM      7  N   UNL     1     -11.761   6.105 -19.069  0.00  0.00    -0.067 NA
ATOM      8  N   UNL     1     -12.288   5.122 -18.349  0.00  0.00    -0.128 NA
ATOM      9  H   UNL     1     -12.152   8.093 -19.211  0.00  0.00    +0.191 HD
ATOM     10  C   UNL     1     -13.288   5.646 -17.565  0.00  0.00    +0.138 A 
ENDROOT
BRANCH   1  11
ATOM     11  N   UNL     1     -14.094   3.684 -16.377  0.00  0.00    -0.261 N 
ATOM     12  H   UNL     1     -14.626   2.991 -16.833  0.00  0.00    +0.170 HD
BRANCH  11  13
ATOM     13  N   UNL     1     -13.251   3.472 -15.477  0.00  0.00    -0.266 N 
ATOM     14  H   UNL     1     -13.209   3.960 -14.622  0.00  0.00    +0.170 HD
BRANCH  13  15
ATOM     15  C   UNL     1     -12.371   2.442 -15.857  0.00  0.00    +0.044 A 
ATOM     16  C   UNL     1     -11.016   2.419 -15.514  0.00  0.00    +0.025 A 
ATOM     17  C   UNL     1     -10.213   1.331 -15.875  0.00  0.00    +0.005 A 
ATOM     18  C   UNL     1     -10.751   0.261 -16.603  0.00  0.00    -0.050 A 
ATOM     19  C   UNL     1      -9.920  -0.944 -16.930  0.00  0.00    +0.044 C 
ATOM     20  C   UNL     1     -12.101   0.295 -16.964  0.00  0.00    +0.005 A 
ATOM     21  C   UNL     1     -12.898   1.381 -16.600  0.00  0.00    +0.025 A 
ENDBRANCH  13  15
ENDBRANCH  11  13
ENDBRANCH   1  11
BRANCH   2  22
ATOM     22  O   UNL     1     -15.922   5.347 -15.038  0.00  0.00    -0.505 OA
ATOM     23  H   UNL     1     -16.205   6.026 -14.406  0.00  0.00    +0.292 HD
ENDBRANCH   2  22
TORSDOF 4
ENDMDL
MODEL 5
REMARK VINA RESULT:      -6.6      3.003      3.759
REMARK  Name = min_compound973.pdb
REMARK  5 active torsions:
REMARK  status: ('A' for Active; 'I' for Inactive)
REMARK    1  A    between atoms: _1  and  _2
REMARK    2  A    between atoms: _1  and  _12
REMARK    3  A    between atoms: _2  and  _13
REMARK    4  A    between atoms: _11  and  _19
REMARK    5  A    between atoms: _18  and  _20
REMARK                            x       y       z     vdW  Elec       q    Type
REMARK                         _______ _______ _______ _____ _____    ______ ____
ROOT
ATOM      1  C   UNL     1     -15.252   3.555 -15.774  0.00  0.00    +0.115 A 
ATOM      2  C   UNL     1     -15.848   2.491 -15.065  0.00  0.00    +0.141 A 
ATOM      3  C   UNL     1     -16.676   2.713 -13.963  0.00  0.00    +0.049 A 
ATOM      4  C   UNL     1     -16.935   4.014 -13.516  0.00  0.00    +0.033 A 
ATOM      5  C   UNL     1     -16.319   5.054 -14.217  0.00  0.00    +0.088 A 
ATOM      6  N   UNL     1     -16.336   6.414 -14.069  0.00  0.00    -0.257 N 
ATOM      7  N   UNL     1     -15.575   7.028 -14.986  0.00  0.00    -0.067 NA
ATOM      8  N   UNL     1     -15.049   6.088 -15.763  0.00  0.00    -0.128 NA
ATOM      9  H   UNL     1     -16.828   6.976 -13.387  0.00  0.00    +0.191 HD
ATOM     10  C   UNL     1     -15.489   4.864 -15.319  0.00  0.00    +0.138 A 
ENDROOT
BRANCH   1  11
ATOM     11  N   UNL     1     -14.424   3.337 -16.884  0.00  0.00    -0.261 N 
ATOM     12  H   UNL     1     -14.719   2.981 -17.753  0.00  0.00    +0.170 HD
BRANCH  11  13
ATOM     13  N   UNL     1     -13.251   3.666 -16.598  0.00  0.00    -0.266 N 
ATOM     14  H   UNL     1     -12.946   4.592 -16.461  0.00  0.00    +0.170 HD
BRANCH  13  15
ATOM     15  C   UNL     1     -12.430   2.528 -16.498  0.00  0.00    +0.044 A 
ATOM     16  C   UNL     1     -12.584   1.392 -17.298  0.00  0.00    +0.025 A 
ATOM     17  C   UNL     1     -11.691   0.320 -17.184  0.00  0.00    +0.005 A 
ATOM     18  C   UNL     1     -10.644   0.362 -16.254  0.00  0.00    -0.050 A 
ATOM     19  C   UNL     1      -9.637  -0.746 -16.176  0.00  0.00    +0.044 C 
ATOM     20  C   UNL     1     -10.503   1.489 -15.439  0.00  0.00    +0.005 A 
ATOM     21  C   UNL     1     -11.395   2.556 -15.557  0.00  0.00    +0.025 A 
ENDBRANCH  13  15
ENDBRANCH  11  13
ENDBRANCH   1  11
BRANCH   2  22
ATOM     22  O   UNL     1     -15.607   1.206 -15.482  0.00  0.00    -0.505 OA
ATOM     23  H   UNL     1     -16.288   0.614 -15.129  0.00  0.00    +0.292 HD
ENDBRANCH   2  22
TORSDOF 4
ENDMDL
MODEL 6
REMARK VINA RESULT:      -6.6     13.526     14.975
REMARK  Name = min_compound973.pdb
REMARK  5 active torsions:
REMARK  status: ('A' for Active; 'I' for Inactive)
REMARK    1  A    between atoms: _1  and  _2
REMARK    2  A    between atoms: _1  and  _12
REMARK    3  A    between atoms: _2  and  _13
REMARK    4  A    between atoms: _11  and  _19
REMARK    5  A    between atoms: _18  and  _20
REMARK                            x       y       z     vdW  Elec       q    Type
REMARK                         _______ _______ _______ _____ _____    ______ ____
ROOT
ATOM      1  C   UNL     1     -14.674  -1.016  -5.174  0.00  0.00    +0.115 A 
ATOM      2  C   UNL     1     -15.211  -0.859  -6.468  0.00  0.00    +0.141 A 
ATOM      3  C   UNL     1     -15.243   0.383  -7.105  0.00  0.00    +0.049 A 
ATOM      4  C   UNL     1     -14.749   1.526  -6.467  0.00  0.00    +0.033 A 
ATOM      5  C   UNL     1     -14.241   1.355  -5.177  0.00  0.00    +0.088 A 
ATOM      6  N   UNL     1     -13.693   2.221  -4.270  0.00  0.00    -0.257 N 
ATOM      7  N   UNL     1     -13.344   1.602  -3.133  0.00  0.00    -0.067 NA
ATOM      8  N   UNL     1     -13.645   0.316  -3.269  0.00  0.00    -0.128 NA
ATOM      9  H   UNL     1     -13.531   3.216  -4.353  0.00  0.00    +0.191 HD
ATOM     10  C   UNL     1     -14.194   0.130  -4.515  0.00  0.00    +0.138 A 
ENDROOT
BRANCH   1  11
ATOM     11  N   UNL     1     -14.634  -2.262  -4.531  0.00  0.00    -0.261 N 
ATOM     12  H   UNL     1     -14.090  -3.032  -4.815  0.00  0.00    +0.170 HD
BRANCH  11  13
ATOM     13  N   UNL     1     -15.399  -2.242  -3.541  0.00  0.00    -0.266 N 
ATOM     14  H   UNL     1     -16.146  -1.613  -3.421  0.00  0.00    +0.170 HD
BRANCH  13  15
ATOM     15  C   UNL     1     -15.041  -3.245  -2.621  0.00  0.00    +0.044 A 
ATOM     16  C   UNL     1     -15.874  -4.317  -2.284  0.00  0.00    +0.025 A 
ATOM     17  C   UNL     1     -15.428  -5.311  -1.406  0.00  0.00    +0.005 A 
ATOM     18  C   UNL     1     -14.150  -5.236  -0.836  0.00  0.00    -0.050 A 
ATOM     19  C   UNL     1     -13.632  -6.333   0.045  0.00  0.00    +0.044 C 
ATOM     20  C   UNL     1     -13.325  -4.153  -1.157  0.00  0.00    +0.005 A 
ATOM     21  C   UNL     1     -13.774  -3.165  -2.034  0.00  0.00    +0.025 A 
ENDBRANCH  13  15
ENDBRANCH  11  13
ENDBRANCH   1  11
BRANCH   2  22
ATOM     22  O   UNL     1     -15.705  -1.964  -7.114  0.00  0.00    -0.505 OA
ATOM     23  H   UNL     1     -15.315  -2.767  -6.734  0.00  0.00    +0.292 HD
ENDBRANCH   2  22
TORSDOF 4
ENDMDL
MODEL 7
REMARK VINA RESULT:      -6.5      1.526      2.210
REMARK  Name = min_compound973.pdb
REMARK  5 active torsions:
REMARK  status: ('A' for Active; 'I' for Inactive)
REMARK    1  A    between atoms: _1  and  _2
REMARK    2  A    between atoms: _1  and  _12
REMARK    3  A    between atoms: _2  and  _13
REMARK    4  A    between atoms: _11  and  _19
REMARK    5  A    between atoms: _18  and  _20
REMARK                            x       y       z     vdW  Elec       q    Type
REMARK                         _______ _______ _______ _____ _____    ______ ____
ROOT
ATOM      1  C   UNL     1     -13.918   5.124 -16.927  0.00  0.00    +0.115 A 
ATOM      2  C   UNL     1     -13.124   5.770 -17.897  0.00  0.00    +0.141 A 
ATOM      3  C   UNL     1     -13.216   7.144 -18.127  0.00  0.00    +0.049 A 
ATOM      4  C   UNL     1     -14.118   7.930 -17.401  0.00  0.00    +0.033 A 
ATOM      5  C   UNL     1     -14.911   7.270 -16.459  0.00  0.00    +0.088 A 
ATOM      6  N   UNL     1     -15.878   7.699 -15.592  0.00  0.00    -0.257 N 
ATOM      7  N   UNL     1     -16.385   6.692 -14.867  0.00  0.00    -0.067 NA
ATOM      8  N   UNL     1     -15.756   5.581 -15.233  0.00  0.00    -0.128 NA
ATOM      9  H   UNL     1     -16.235   8.634 -15.444  0.00  0.00    +0.191 HD
ATOM     10  C   UNL     1     -14.841   5.902 -16.207  0.00  0.00    +0.138 A 
ENDROOT
BRANCH   1  11
ATOM     11  N   UNL     1     -13.825   3.745 -16.688  0.00  0.00    -0.261 N 
ATOM     12  H   UNL     1     -14.317   3.048 -17.179  0.00  0.00    +0.170 HD
BRANCH  11  13
ATOM     13  N   UNL     1     -13.019   3.540 -15.753  0.00  0.00    -0.266 N 
ATOM     14  H   UNL     1     -12.984   4.061 -14.918  0.00  0.00    +0.170 HD
BRANCH  13  15
ATOM     15  C   UNL     1     -12.171   2.461 -16.061  0.00  0.00    +0.044 A 
ATOM     16  C   UNL     1     -10.958   2.221 -15.406  0.00  0.00    +0.025 A 
ATOM     17  C   UNL     1     -10.193   1.093 -15.725  0.00  0.00    +0.005 A 
ATOM     18  C   UNL     1     -10.620   0.201 -16.717  0.00  0.00    -0.050 A 
ATOM     19  C   UNL     1      -9.849  -1.050 -17.013  0.00  0.00    +0.044 C 
ATOM     20  C   UNL     1     -11.822   0.452 -17.386  0.00  0.00    +0.005 A 
ATOM     21  C   UNL     1     -12.582   1.578 -17.064  0.00  0.00    +0.025 A 
ENDBRANCH  13  15
ENDBRANCH  11  13
ENDBRANCH   1  11
BRANCH   2  22
ATOM     22  O   UNL     1     -12.234   5.020 -18.624  0.00  0.00    -0.505 OA
ATOM     23  H   UNL     1     -12.221   4.111 -18.288  0.00  0.00    +0.292 HD
ENDBRANCH   2  22
TORSDOF 4
ENDMDL
MODEL 8
REMARK VINA RESULT:      -6.4      2.589      3.156
REMARK  Name = min_compound973.pdb
REMARK  5 active torsions:
REMARK  status: ('A' for Active; 'I' for Inactive)
REMARK    1  A    between atoms: _1  and  _2
REMARK    2  A    between atoms: _1  and  _12
REMARK    3  A    between atoms: _2  and  _13
REMARK    4  A    between atoms: _11  and  _19
REMARK    5  A    between atoms: _18  and  _20
REMARK                            x       y       z     vdW  Elec       q    Type
REMARK                         _______ _______ _______ _____ _____    ______ ____
ROOT
ATOM      1  C   UNL     1     -14.613   4.996 -15.885  0.00  0.00    +0.115 A 
ATOM      2  C   UNL     1     -15.512   4.936 -14.800  0.00  0.00    +0.141 A 
ATOM      3  C   UNL     1     -16.208   6.061 -14.358  0.00  0.00    +0.049 A 
ATOM      4  C   UNL     1     -16.025   7.303 -14.978  0.00  0.00    +0.033 A 
ATOM      5  C   UNL     1     -15.115   7.349 -16.036  0.00  0.00    +0.088 A 
ATOM      6  N   UNL     1     -14.688   8.359 -16.854  0.00  0.00    -0.257 N 
ATOM      7  N   UNL     1     -13.781   7.935 -17.745  0.00  0.00    -0.067 NA
ATOM      8  N   UNL     1     -13.599   6.636 -17.541  0.00  0.00    -0.128 NA
ATOM      9  H   UNL     1     -14.961   9.333 -16.862  0.00  0.00    +0.191 HD
ATOM     10  C   UNL     1     -14.406   6.243 -16.501  0.00  0.00    +0.138 A 
ENDROOT
BRANCH   1  11
ATOM     11  N   UNL     1     -13.915   3.867 -16.337  0.00  0.00    -0.261 N 
ATOM     12  H   UNL     1     -14.249   3.218 -16.998  0.00  0.00    +0.170 HD
BRANCH  11  13
ATOM     13  N   UNL     1     -12.802   3.812 -15.768  0.00  0.00    -0.266 N 
ATOM     14  H   UNL     1     -12.412   4.537 -15.227  0.00  0.00    +0.170 HD
BRANCH  13  15
ATOM     15  C   UNL     1     -12.184   2.572 -16.009  0.00  0.00    +0.044 A 
ATOM     16  C   UNL     1     -12.779   1.543 -16.747  0.00  0.00    +0.025 A 
ATOM     17  C   UNL     1     -12.081   0.357 -16.998  0.00  0.00    +0.005 A 
ATOM     18  C   UNL     1     -10.785   0.175 -16.497  0.00  0.00    -0.050 A 
ATOM     19  C   UNL     1      -9.998  -1.059 -16.824  0.00  0.00    +0.044 C 
ATOM     20  C   UNL     1     -10.198   1.195 -15.742  0.00  0.00    +0.005 A 
ATOM     21  C   UNL     1     -10.898   2.376 -15.495  0.00  0.00    +0.025 A 
ENDBRANCH  13  15
ENDBRANCH  11  13
ENDBRANCH   1  11
BRANCH   2  22
ATOM     22  O   UNL     1     -15.706   3.730 -14.174  0.00  0.00    -0.505 OA
ATOM     23  H   UNL     1     -15.532   3.006 -14.796  0.00  0.00    +0.292 HD
ENDBRANCH   2  22
TORSDOF 4
ENDMDL
MODEL 9
REMARK VINA RESULT:      -6.4     13.428     15.191
REMARK  Name = min_compound973.pdb
REMARK  5 active torsions:
REMARK  status: ('A' for Active; 'I' for Inactive)
REMARK    1  A    between atoms: _1  and  _2
REMARK    2  A    between atoms: _1  and  _12
REMARK    3  A    between atoms: _2  and  _13
REMARK    4  A    between atoms: _11  and  _19
REMARK    5  A    between atoms: _18  and  _20
REMARK                            x       y       z     vdW  Elec       q    Type
REMARK                         _______ _______ _______ _____ _____    ______ ____
ROOT
ATOM      1  C   UNL     1     -15.302  -2.253  -3.241  0.00  0.00    +0.115 A 
ATOM      2  C   UNL     1     -16.640  -1.887  -2.989  0.00  0.00    +0.141 A 
ATOM      3  C   UNL     1     -17.465  -2.642  -2.155  0.00  0.00    +0.049 A 
ATOM      4  C   UNL     1     -16.988  -3.807  -1.543  0.00  0.00    +0.033 A 
ATOM      5  C   UNL     1     -15.667  -4.166  -1.821  0.00  0.00    +0.088 A 
ATOM      6  N   UNL     1     -14.882  -5.212  -1.418  0.00  0.00    -0.257 N 
ATOM      7  N   UNL     1     -13.655  -5.155  -1.953  0.00  0.00    -0.067 NA
ATOM      8  N   UNL     1     -13.600  -4.065  -2.710  0.00  0.00    -0.128 NA
ATOM      9  H   UNL     1     -15.109  -5.980  -0.799  0.00  0.00    +0.191 HD
ATOM     10  C   UNL     1     -14.819  -3.433  -2.648  0.00  0.00    +0.138 A 
ENDROOT
BRANCH   1  11
ATOM     11  N   UNL     1     -14.467  -1.495  -4.074  0.00  0.00    -0.261 N 
ATOM     12  H   UNL     1     -13.926  -0.724  -3.789  0.00  0.00    +0.170 HD
BRANCH  11  13
ATOM     13  N   UNL     1     -14.517  -1.952  -5.238  0.00  0.00    -0.266 N 
ATOM     14  H   UNL     1     -14.313  -2.883  -5.485  0.00  0.00    +0.170 HD
BRANCH  13  15
ATOM     15  C   UNL     1     -14.907  -0.950  -6.145  0.00  0.00    +0.044 A 
ATOM     16  C   UNL     1     -16.058  -1.028  -6.935  0.00  0.00    +0.025 A 
ATOM     17  C   UNL     1     -16.415   0.036  -7.772  0.00  0.00    +0.005 A 
ATOM     18  C   UNL     1     -15.614   1.182  -7.847  0.00  0.00    -0.050 A 
ATOM     19  C   UNL     1     -16.027   2.358  -8.682  0.00  0.00    +0.044 C 
ATOM     20  C   UNL     1     -14.451   1.251  -7.074  0.00  0.00    +0.005 A 
ATOM     21  C   UNL     1     -14.100   0.189  -6.239  0.00  0.00    +0.025 A 
ENDBRANCH  13  15
ENDBRANCH  11  13
ENDBRANCH   1  11
BRANCH   2  22
ATOM     22  O   UNL     1     -17.132  -0.750  -3.580  0.00  0.00    -0.505 OA
ATOM     23  H   UNL     1     -17.806  -0.987  -4.235  0.00  0.00    +0.292 HD
ENDBRANCH   2  22
TORSDOF 4
ENDMDL
