MODEL 1
REMARK VINA RESULT:      -7.5      0.000      0.000
REMARK  Name = min_compound966.pdb
REMARK  2 active torsions:
REMARK  status: ('A' for Active; 'I' for Inactive)
REMARK    1  A    between atoms: _7  and  _21
REMARK    2  A    between atoms: _21  and  _22
REMARK                            x       y       z     vdW  Elec       q    Type
REMARK                         _______ _______ _______ _____ _____    ______ ____
ROOT
ATOM      1  C   UNL     1     -17.475   2.876 -15.171  0.00  0.00    +0.001 A 
ATOM      2  C   UNL     1     -17.807   4.219 -15.235  0.00  0.00    +0.002 A 
ATOM      3  C   UNL     1     -16.865   5.174 -15.634  0.00  0.00    +0.026 A 
ATOM      4  C   UNL     1     -15.560   4.761 -15.969  0.00  0.00    +0.050 A 
ATOM      5  N   UNL     1     -14.430   5.448 -16.378  0.00  0.00    -0.340 N 
ATOM      6  C   UNL     1     -13.388   4.555 -16.631  0.00  0.00    +0.052 A 
ATOM      7  C   UNL     1     -12.077   4.788 -17.097  0.00  0.00    +0.028 A 
ATOM      8  C   UNL     1     -11.213   3.704 -17.265  0.00  0.00    +0.030 A 
ATOM      9  C   UNL     1     -11.658   2.420 -16.974  0.00  0.00    +0.073 A 
ATOM     10  N   UNL     1     -10.842   1.283 -17.125  0.00  0.00    -0.313 N 
ATOM     11  C   UNL     1      -9.540   1.173 -17.549  0.00  0.00    +0.092 A 
ATOM     12  C   UNL     1      -9.191  -0.163 -17.525  0.00  0.00    +0.020 A 
ATOM     13  C   UNL     1     -10.319  -0.889 -17.073  0.00  0.00    +0.029 A 
ATOM     14  C   UNL     1     -11.320   0.028 -16.833  0.00  0.00    +0.065 A 
ATOM     15  C   UNL     1     -12.666  -0.130 -16.367  0.00  0.00    +0.137 A 
ATOM     16  N   UNL     1     -13.461   0.882 -16.208  0.00  0.00    -0.251 NA
ATOM     17  C   UNL     1     -12.968   2.175 -16.510  0.00  0.00    +0.097 A 
ATOM     18  C   UNL     1     -13.851   3.269 -16.339  0.00  0.00    +0.035 A 
ATOM     19  C   UNL     1     -15.213   3.402 -15.920  0.00  0.00    +0.010 A 
ATOM     20  C   UNL     1     -16.188   2.460 -15.512  0.00  0.00    +0.010 A 
ENDROOT
BRANCH   5  21
ATOM     21  C   UNL     1     -14.247   6.878 -16.588  0.00  0.00    +0.119 C 
ATOM     22  C   UNL     1     -14.483   7.482 -17.961  0.00  0.00    +0.027 C 
ENDBRANCH   5  21
TORSDOF 1
ENDMDL
MODEL 2
REMARK VINA RESULT:      -7.5      1.160      3.384
REMARK  Name = min_compound966.pdb
REMARK  2 active torsions:
REMARK  status: ('A' for Active; 'I' for Inactive)
REMARK    1  A    between atoms: _7  and  _21
REMARK    2  A    between atoms: _21  and  _22
REMARK                            x       y       z     vdW  Elec       q    Type
REMARK                         _______ _______ _______ _____ _____    ______ ____
ROOT
ATOM      1  C   UNL     1     -13.111   7.498 -17.781  0.00  0.00    +0.001 A 
ATOM      2  C   UNL     1     -14.414   7.855 -17.477  0.00  0.00    +0.002 A 
ATOM      3  C   UNL     1     -15.327   6.906 -17.005  0.00  0.00    +0.026 A 
ATOM      4  C   UNL     1     -14.914   5.569 -16.842  0.00  0.00    +0.050 A 
ATOM      5  N   UNL     1     -15.568   4.425 -16.417  0.00  0.00    -0.340 N 
ATOM      6  C   UNL     1     -14.685   3.346 -16.392  0.00  0.00    +0.052 A 
ATOM      7  C   UNL     1     -14.889   2.007 -15.997  0.00  0.00    +0.028 A 
ATOM      8  C   UNL     1     -13.823   1.106 -16.071  0.00  0.00    +0.030 A 
ATOM      9  C   UNL     1     -12.586   1.544 -16.529  0.00  0.00    +0.073 A 
ATOM     10  N   UNL     1     -11.469   0.692 -16.625  0.00  0.00    -0.313 N 
ATOM     11  C   UNL     1     -11.341  -0.643 -16.326  0.00  0.00    +0.092 A 
ATOM     12  C   UNL     1     -10.039  -1.019 -16.590  0.00  0.00    +0.020 A 
ATOM     13  C   UNL     1      -9.353   0.125 -17.064  0.00  0.00    +0.029 A 
ATOM     14  C   UNL     1     -10.260   1.163 -17.076  0.00  0.00    +0.065 A 
ATOM     15  C   UNL     1     -10.128   2.539 -17.456  0.00  0.00    +0.137 A 
ATOM     16  N   UNL     1     -11.124   3.368 -17.389  0.00  0.00    -0.251 NA
ATOM     17  C   UNL     1     -12.370   2.881 -16.923  0.00  0.00    +0.097 A 
ATOM     18  C   UNL     1     -13.445   3.801 -16.849  0.00  0.00    +0.035 A 
ATOM     19  C   UNL     1     -13.593   5.196 -17.135  0.00  0.00    +0.010 A 
ATOM     20  C   UNL     1     -12.693   6.178 -17.611  0.00  0.00    +0.010 A 
ENDROOT
BRANCH   5  21
ATOM     21  C   UNL     1     -16.954   4.259 -15.996  0.00  0.00    +0.119 C 
ATOM     22  C   UNL     1     -17.332   4.440 -14.537  0.00  0.00    +0.027 C 
ENDBRANCH   5  21
TORSDOF 1
ENDMDL
MODEL 3
REMARK VINA RESULT:      -7.2      2.582      3.604
REMARK  Name = min_compound966.pdb
REMARK  2 active torsions:
REMARK  status: ('A' for Active; 'I' for Inactive)
REMARK    1  A    between atoms: _7  and  _21
REMARK    2  A    between atoms: _21  and  _22
REMARK                            x       y       z     vdW  Elec       q    Type
REMARK                         _______ _______ _______ _____ _____    ______ ____
ROOT
ATOM      1  C   UNL     1     -14.290   7.672 -17.053  0.00  0.00    +0.001 A 
ATOM      2  C   UNL     1     -15.104   8.004 -18.124  0.00  0.00    +0.002 A 
ATOM      3  C   UNL     1     -15.294   7.112 -19.185  0.00  0.00    +0.026 A 
ATOM      4  C   UNL     1     -14.644   5.862 -19.164  0.00  0.00    +0.050 A 
ATOM      5  N   UNL     1     -14.622   4.796 -20.047  0.00  0.00    -0.340 N 
ATOM      6  C   UNL     1     -13.846   3.758 -19.531  0.00  0.00    +0.052 A 
ATOM      7  C   UNL     1     -13.568   2.477 -20.053  0.00  0.00    +0.028 A 
ATOM      8  C   UNL     1     -12.744   1.612 -19.329  0.00  0.00    +0.030 A 
ATOM      9  C   UNL     1     -12.217   2.026 -18.111  0.00  0.00    +0.073 A 
ATOM     10  N   UNL     1     -11.384   1.204 -17.328  0.00  0.00    -0.313 N 
ATOM     11  C   UNL     1     -10.931  -0.074 -17.552  0.00  0.00    +0.092 A 
ATOM     12  C   UNL     1     -10.140  -0.443 -16.482  0.00  0.00    +0.020 A 
ATOM     13  C   UNL     1     -10.113   0.645 -15.577  0.00  0.00    +0.029 A 
ATOM     14  C   UNL     1     -10.887   1.646 -16.126  0.00  0.00    +0.065 A 
ATOM     15  C   UNL     1     -11.216   2.960 -15.659  0.00  0.00    +0.137 A 
ATOM     16  N   UNL     1     -11.977   3.760 -16.340  0.00  0.00    -0.251 NA
ATOM     17  C   UNL     1     -12.490   3.303 -17.578  0.00  0.00    +0.097 A 
ATOM     18  C   UNL     1     -13.327   4.186 -18.305  0.00  0.00    +0.035 A 
ATOM     19  C   UNL     1     -13.826   5.508 -18.080  0.00  0.00    +0.010 A 
ATOM     20  C   UNL     1     -13.653   6.431 -17.022  0.00  0.00    +0.010 A 
ENDROOT
BRANCH   5  21
ATOM     21  C   UNL     1     -15.298   4.648 -21.330  0.00  0.00    +0.119 C 
ATOM     22  C   UNL     1     -14.593   5.050 -22.612  0.00  0.00    +0.027 C 
ENDBRANCH   5  21
TORSDOF 1
ENDMDL
MODEL 4
REMARK VINA RESULT:      -7.2     13.466     15.038
REMARK  Name = min_compound966.pdb
REMARK  2 active torsions:
REMARK  status: ('A' for Active; 'I' for Inactive)
REMARK    1  A    between atoms: _7  and  _21
REMARK    2  A    between atoms: _21  and  _22
REMARK                            x       y       z     vdW  Elec       q    Type
REMARK                         _______ _______ _______ _____ _____    ______ ____
ROOT
ATOM      1  C   UNL     1     -13.348   1.669  -3.412  0.00  0.00    +0.001 A 
ATOM      2  C   UNL     1     -14.216   2.682  -3.786  0.00  0.00    +0.002 A 
ATOM      3  C   UNL     1     -15.585   2.434  -3.939  0.00  0.00    +0.026 A 
ATOM      4  C   UNL     1     -16.083   1.135  -3.714  0.00  0.00    +0.050 A 
ATOM      5  N   UNL     1     -17.351   0.585  -3.794  0.00  0.00    -0.340 N 
ATOM      6  C   UNL     1     -17.317  -0.759  -3.422  0.00  0.00    +0.052 A 
ATOM      7  C   UNL     1     -18.359  -1.705  -3.316  0.00  0.00    +0.028 A 
ATOM      8  C   UNL     1     -18.055  -3.009  -2.920  0.00  0.00    +0.030 A 
ATOM      9  C   UNL     1     -16.738  -3.351  -2.637  0.00  0.00    +0.073 A 
ATOM     10  N   UNL     1     -16.363  -4.645  -2.229  0.00  0.00    -0.313 N 
ATOM     11  C   UNL     1     -17.124  -5.772  -2.034  0.00  0.00    +0.092 A 
ATOM     12  C   UNL     1     -16.286  -6.792  -1.629  0.00  0.00    +0.020 A 
ATOM     13  C   UNL     1     -14.972  -6.268  -1.575  0.00  0.00    +0.029 A 
ATOM     14  C   UNL     1     -15.050  -4.943  -1.951  0.00  0.00    +0.065 A 
ATOM     15  C   UNL     1     -14.047  -3.928  -2.078  0.00  0.00    +0.137 A 
ATOM     16  N   UNL     1     -14.336  -2.720  -2.452  0.00  0.00    -0.251 NA
ATOM     17  C   UNL     1     -15.689  -2.413  -2.737  0.00  0.00    +0.097 A 
ATOM     18  C   UNL     1     -15.989  -1.087  -3.136  0.00  0.00    +0.035 A 
ATOM     19  C   UNL     1     -15.216   0.103  -3.324  0.00  0.00    +0.010 A 
ATOM     20  C   UNL     1     -13.837   0.384  -3.178  0.00  0.00    +0.010 A 
ENDROOT
BRANCH   5  21
ATOM     21  C   UNL     1     -18.610   1.222  -4.158  0.00  0.00    +0.119 C 
ATOM     22  C   UNL     1     -19.033   1.294  -5.614  0.00  0.00    +0.027 C 
ENDBRANCH   5  21
TORSDOF 1
ENDMDL
MODEL 5
REMARK VINA RESULT:      -7.0     10.782     13.678
REMARK  Name = min_compound966.pdb
REMARK  2 active torsions:
REMARK  status: ('A' for Active; 'I' for Inactive)
REMARK    1  A    between atoms: _7  and  _21
REMARK    2  A    between atoms: _21  and  _22
REMARK                            x       y       z     vdW  Elec       q    Type
REMARK                         _______ _______ _______ _____ _____    ______ ____
ROOT
ATOM      1  C   UNL     1     -13.475   1.710  -3.467  0.00  0.00    +0.001 A 
ATOM      2  C   UNL     1     -13.600   0.450  -4.029  0.00  0.00    +0.002 A 
ATOM      3  C   UNL     1     -14.699   0.129  -4.834  0.00  0.00    +0.026 A 
ATOM      4  C   UNL     1     -15.691   1.101  -5.070  0.00  0.00    +0.050 A 
ATOM      5  N   UNL     1     -16.872   1.085  -5.793  0.00  0.00    -0.340 N 
ATOM      6  C   UNL     1     -17.481   2.339  -5.748  0.00  0.00    +0.052 A 
ATOM      7  C   UNL     1     -18.666   2.803  -6.358  0.00  0.00    +0.028 A 
ATOM      8  C   UNL     1     -19.066   4.124  -6.149  0.00  0.00    +0.030 A 
ATOM      9  C   UNL     1     -18.293   4.957  -5.349  0.00  0.00    +0.073 A 
ATOM     10  N   UNL     1     -18.635   6.300  -5.100  0.00  0.00    -0.313 N 
ATOM     11  C   UNL     1     -19.707   7.040  -5.536  0.00  0.00    +0.092 A 
ATOM     12  C   UNL     1     -19.589   8.314  -5.016  0.00  0.00    +0.020 A 
ATOM     13  C   UNL     1     -18.407   8.349  -4.239  0.00  0.00    +0.029 A 
ATOM     14  C   UNL     1     -17.841   7.094  -4.308  0.00  0.00    +0.065 A 
ATOM     15  C   UNL     1     -16.649   6.553  -3.725  0.00  0.00    +0.137 A 
ATOM     16  N   UNL     1     -16.287   5.323  -3.919  0.00  0.00    -0.251 NA
ATOM     17  C   UNL     1     -17.105   4.505  -4.736  0.00  0.00    +0.097 A 
ATOM     18  C   UNL     1     -16.691   3.166  -4.945  0.00  0.00    +0.035 A 
ATOM     19  C   UNL     1     -15.571   2.385  -4.518  0.00  0.00    +0.010 A 
ATOM     20  C   UNL     1     -14.448   2.680  -3.708  0.00  0.00    +0.010 A 
ENDROOT
BRANCH   5  21
ATOM     21  C   UNL     1     -17.470  -0.002  -6.558  0.00  0.00    +0.119 C 
ATOM     22  C   UNL     1     -16.838  -0.452  -7.862  0.00  0.00    +0.027 C 
ENDBRANCH   5  21
TORSDOF 1
ENDMDL
MODEL 6
REMARK VINA RESULT:      -6.8      3.818      5.815
REMARK  Name = min_compound966.pdb
REMARK  2 active torsions:
REMARK  status: ('A' for Active; 'I' for Inactive)
REMARK    1  A    between atoms: _7  and  _21
REMARK    2  A    between atoms: _21  and  _22
REMARK                            x       y       z     vdW  Elec       q    Type
REMARK                         _______ _______ _______ _____ _____    ______ ____
ROOT
ATOM      1  C   UNL     1     -10.226   0.644 -17.186  0.00  0.00    +0.001 A 
ATOM      2  C   UNL     1     -10.268   1.084 -15.874  0.00  0.00    +0.002 A 
ATOM      3  C   UNL     1     -11.254   1.982 -15.448  0.00  0.00    +0.026 A 
ATOM      4  C   UNL     1     -12.211   2.448 -16.372  0.00  0.00    +0.050 A 
ATOM      5  N   UNL     1     -13.275   3.327 -16.264  0.00  0.00    -0.340 N 
ATOM      6  C   UNL     1     -13.952   3.415 -17.480  0.00  0.00    +0.052 A 
ATOM      7  C   UNL     1     -15.106   4.147 -17.833  0.00  0.00    +0.028 A 
ATOM      8  C   UNL     1     -15.588   4.066 -19.141  0.00  0.00    +0.030 A 
ATOM      9  C   UNL     1     -14.929   3.267 -20.067  0.00  0.00    +0.073 A 
ATOM     10  N   UNL     1     -15.363   3.136 -21.400  0.00  0.00    -0.313 N 
ATOM     11  C   UNL     1     -16.431   3.708 -22.047  0.00  0.00    +0.092 A 
ATOM     12  C   UNL     1     -16.432   3.260 -23.354  0.00  0.00    +0.020 A 
ATOM     13  C   UNL     1     -15.328   2.387 -23.505  0.00  0.00    +0.029 A 
ATOM     14  C   UNL     1     -14.688   2.330 -22.286  0.00  0.00    +0.065 A 
ATOM     15  C   UNL     1     -13.525   1.613 -21.852  0.00  0.00    +0.137 A 
ATOM     16  N   UNL     1     -13.079   1.699 -20.637  0.00  0.00    -0.251 NA
ATOM     17  C   UNL     1     -13.777   2.528 -19.725  0.00  0.00    +0.097 A 
ATOM     18  C   UNL     1     -13.282   2.604 -18.399  0.00  0.00    +0.035 A 
ATOM     19  C   UNL     1     -12.187   2.001 -17.702  0.00  0.00    +0.010 A 
ATOM     20  C   UNL     1     -11.178   1.093 -18.102  0.00  0.00    +0.010 A 
ENDROOT
BRANCH   5  21
ATOM     21  C   UNL     1     -13.740   4.072 -15.101  0.00  0.00    +0.119 C 
ATOM     22  C   UNL     1     -14.987   3.626 -14.359  0.00  0.00    +0.027 C 
ENDBRANCH   5  21
TORSDOF 1
ENDMDL
MODEL 7
REMARK VINA RESULT:      -6.6      2.132      6.412
REMARK  Name = min_compound966.pdb
REMARK  2 active torsions:
REMARK  status: ('A' for Active; 'I' for Inactive)
REMARK    1  A    between atoms: _7  and  _21
REMARK    2  A    between atoms: _21  and  _22
REMARK                            x       y       z     vdW  Elec       q    Type
REMARK                         _______ _______ _______ _____ _____    ______ ____
ROOT
ATOM      1  C   UNL     1     -12.677   7.333 -18.243  0.00  0.00    +0.001 A 
ATOM      2  C   UNL     1     -12.034   6.543 -19.182  0.00  0.00    +0.002 A 
ATOM      3  C   UNL     1     -12.160   5.150 -19.156  0.00  0.00    +0.026 A 
ATOM      4  C   UNL     1     -12.949   4.545 -18.158  0.00  0.00    +0.050 A 
ATOM      5  N   UNL     1     -13.252   3.226 -17.866  0.00  0.00    -0.340 N 
ATOM      6  C   UNL     1     -14.129   3.161 -16.783  0.00  0.00    +0.052 A 
ATOM      7  C   UNL     1     -14.734   2.047 -16.162  0.00  0.00    +0.028 A 
ATOM      8  C   UNL     1     -15.584   2.255 -15.074  0.00  0.00    +0.030 A 
ATOM      9  C   UNL     1     -15.820   3.549 -14.624  0.00  0.00    +0.073 A 
ATOM     10  N   UNL     1     -16.668   3.830 -13.537  0.00  0.00    -0.313 N 
ATOM     11  C   UNL     1     -17.393   2.984 -12.732  0.00  0.00    +0.092 A 
ATOM     12  C   UNL     1     -18.071   3.750 -11.805  0.00  0.00    +0.020 A 
ATOM     13  C   UNL     1     -17.750   5.105 -12.054  0.00  0.00    +0.029 A 
ATOM     14  C   UNL     1     -16.882   5.124 -13.126  0.00  0.00    +0.065 A 
ATOM     15  C   UNL     1     -16.235   6.204 -13.810  0.00  0.00    +0.137 A 
ATOM     16  N   UNL     1     -15.443   6.003 -14.816  0.00  0.00    -0.251 NA
ATOM     17  C   UNL     1     -15.224   4.669 -15.240  0.00  0.00    +0.097 A 
ATOM     18  C   UNL     1     -14.361   4.467 -16.346  0.00  0.00    +0.035 A 
ATOM     19  C   UNL     1     -13.616   5.333 -17.208  0.00  0.00    +0.010 A 
ATOM     20  C   UNL     1     -13.469   6.740 -17.260  0.00  0.00    +0.010 A 
ENDROOT
BRANCH   5  21
ATOM     21  C   UNL     1     -12.817   2.009 -18.541  0.00  0.00    +0.119 C 
ATOM     22  C   UNL     1     -11.633   1.225 -18.005  0.00  0.00    +0.027 C 
ENDBRANCH   5  21
TORSDOF 1
ENDMDL
MODEL 8
REMARK VINA RESULT:      -6.6      1.529      3.815
REMARK  Name = min_compound966.pdb
REMARK  2 active torsions:
REMARK  status: ('A' for Active; 'I' for Inactive)
REMARK    1  A    between atoms: _7  and  _21
REMARK    2  A    between atoms: _21  and  _22
REMARK                            x       y       z     vdW  Elec       q    Type
REMARK                         _______ _______ _______ _____ _____    ______ ____
ROOT
ATOM      1  C   UNL     1     -15.357   8.305 -15.841  0.00  0.00    +0.001 A 
ATOM      2  C   UNL     1     -16.616   8.386 -15.267  0.00  0.00    +0.002 A 
ATOM      3  C   UNL     1     -17.316   7.230 -14.906  0.00  0.00    +0.026 A 
ATOM      4  C   UNL     1     -16.733   5.968 -15.135  0.00  0.00    +0.050 A 
ATOM      5  N   UNL     1     -17.168   4.673 -14.906  0.00  0.00    -0.340 N 
ATOM      6  C   UNL     1     -16.179   3.761 -15.274  0.00  0.00    +0.052 A 
ATOM      7  C   UNL     1     -16.157   2.352 -15.189  0.00  0.00    +0.028 A 
ATOM      8  C   UNL     1     -15.029   1.661 -15.637  0.00  0.00    +0.030 A 
ATOM      9  C   UNL     1     -13.952   2.370 -16.156  0.00  0.00    +0.073 A 
ATOM     10  N   UNL     1     -12.784   1.739 -16.622  0.00  0.00    -0.313 N 
ATOM     11  C   UNL     1     -12.455   0.406 -16.677  0.00  0.00    +0.092 A 
ATOM     12  C   UNL     1     -11.188   0.297 -17.216  0.00  0.00    +0.020 A 
ATOM     13  C   UNL     1     -10.732   1.607 -17.498  0.00  0.00    +0.029 A 
ATOM     14  C   UNL     1     -11.736   2.474 -17.122  0.00  0.00    +0.065 A 
ATOM     15  C   UNL     1     -11.830   3.903 -17.174  0.00  0.00    +0.137 A 
ATOM     16  N   UNL     1     -12.884   4.537 -16.761  0.00  0.00    -0.251 NA
ATOM     17  C   UNL     1     -13.962   3.778 -16.244  0.00  0.00    +0.097 A 
ATOM     18  C   UNL     1     -15.102   4.487 -15.789  0.00  0.00    +0.035 A 
ATOM     19  C   UNL     1     -15.454   5.871 -15.704  0.00  0.00    +0.010 A 
ATOM     20  C   UNL     1     -14.771   7.058 -16.059  0.00  0.00    +0.010 A 
ENDROOT
BRANCH   5  21
ATOM     21  C   UNL     1     -18.426   4.211 -14.334  0.00  0.00    +0.119 C 
ATOM     22  C   UNL     1     -18.509   3.861 -12.859  0.00  0.00    +0.027 C 
ENDBRANCH   5  21
TORSDOF 1
ENDMDL
MODEL 9
REMARK VINA RESULT:      -6.6      2.168      6.320
REMARK  Name = min_compound966.pdb
REMARK  2 active torsions:
REMARK  status: ('A' for Active; 'I' for Inactive)
REMARK    1  A    between atoms: _7  and  _21
REMARK    2  A    between atoms: _21  and  _22
REMARK                            x       y       z     vdW  Elec       q    Type
REMARK                         _______ _______ _______ _____ _____    ______ ____
ROOT
ATOM      1  C   UNL     1     -10.510   1.587 -15.762  0.00  0.00    +0.001 A 
ATOM      2  C   UNL     1     -10.234   1.133 -17.041  0.00  0.00    +0.002 A 
ATOM      3  C   UNL     1     -11.139   1.342 -18.088  0.00  0.00    +0.026 A 
ATOM      4  C   UNL     1     -12.348   2.019 -17.833  0.00  0.00    +0.050 A 
ATOM      5  N   UNL     1     -13.424   2.360 -18.635  0.00  0.00    -0.340 N 
ATOM      6  C   UNL     1     -14.366   3.078 -17.897  0.00  0.00    +0.052 A 
ATOM      7  C   UNL     1     -15.589   3.658 -18.294  0.00  0.00    +0.028 A 
ATOM      8  C   UNL     1     -16.362   4.332 -17.346  0.00  0.00    +0.030 A 
ATOM      9  C   UNL     1     -15.913   4.421 -16.033  0.00  0.00    +0.073 A 
ATOM     10  N   UNL     1     -16.638   5.088 -15.028  0.00  0.00    -0.313 N 
ATOM     11  C   UNL     1     -17.844   5.744 -15.089  0.00  0.00    +0.092 A 
ATOM     12  C   UNL     1     -18.129   6.236 -13.830  0.00  0.00    +0.020 A 
ATOM     13  C   UNL     1     -17.061   5.868 -12.977  0.00  0.00    +0.029 A 
ATOM     14  C   UNL     1     -16.158   5.161 -13.743  0.00  0.00    +0.065 A 
ATOM     15  C   UNL     1     -14.904   4.550 -13.415  0.00  0.00    +0.137 A 
ATOM     16  N   UNL     1     -14.195   3.921 -14.301  0.00  0.00    -0.251 NA
ATOM     17  C   UNL     1     -14.690   3.848 -15.626  0.00  0.00    +0.097 A 
ATOM     18  C   UNL     1     -13.899   3.164 -16.582  0.00  0.00    +0.035 A 
ATOM     19  C   UNL     1     -12.635   2.495 -16.545  0.00  0.00    +0.010 A 
ATOM     20  C   UNL     1     -11.700   2.268 -15.507  0.00  0.00    +0.010 A 
ENDROOT
BRANCH   5  21
ATOM     21  C   UNL     1     -13.635   2.101 -20.053  0.00  0.00    +0.119 C 
ATOM     22  C   UNL     1     -13.456   3.217 -21.066  0.00  0.00    +0.027 C 
ENDBRANCH   5  21
TORSDOF 1
ENDMDL
