MODEL 1
REMARK VINA RESULT:      -7.8      0.000      0.000
REMARK  Name = min_compound995.pdb
REMARK  5 active torsions:
REMARK  status: ('A' for Active; 'I' for Inactive)
REMARK    1  A    between atoms: _6  and  _24
REMARK    2  A    between atoms: _8  and  _9
REMARK    3  A    between atoms: _12  and  _25
REMARK    4  A    between atoms: _15  and  _22
REMARK    5  A    between atoms: _19  and  _23
REMARK                            x       y       z     vdW  Elec       q    Type
REMARK                         _______ _______ _______ _____ _____    ______ ____
ROOT
ATOM      1  O   UNL     1     -14.756   4.552 -15.475  0.00  0.00    -0.483 OA
ATOM      2  C   UNL     1     -13.965   3.820 -16.328  0.00  0.00    +0.231 C 
ATOM      3  C   UNL     1     -13.793   2.484 -15.935  0.00  0.00    +0.071 C 
ATOM      4  C   UNL     1     -13.129   1.609 -16.772  0.00  0.00    +0.158 C 
ATOM      5  C   UNL     1     -12.669   2.043 -18.006  0.00  0.00    +0.158 C 
ATOM      6  C   UNL     1     -12.839   3.371 -18.399  0.00  0.00    +0.057 C 
ATOM      7  C   UNL     1     -13.434   4.314 -17.534  0.00  0.00    +0.009 C 
ATOM      8  C   UNL     1     -13.693   5.765 -17.869  0.00  0.00    +0.003 C 
ATOM      9  C   UNL     1     -14.440   6.563 -16.836  0.00  0.00    +0.025 C 
ATOM     10  C   UNL     1     -14.536   7.959 -16.816  0.00  0.00    +0.060 C 
ATOM     11  C   UNL     1     -15.245   8.600 -15.798  0.00  0.00    +0.160 C 
ATOM     12  C   UNL     1     -15.865   7.951 -14.717  0.00  0.00    +0.204 C 
ATOM     13  C   UNL     1     -15.668   6.566 -14.711  0.00  0.00    +0.157 C 
ATOM     14  O   UNL     1     -16.513   8.586 -13.816  0.00  0.00    -0.288 OA
ATOM     15  C   UNL     1     -14.952   5.889 -15.722  0.00  0.00    +0.114 C 
ENDROOT
BRANCH   8  16
ATOM     16  C   UNL     1     -13.259   6.324 -19.040  0.00  0.00    +0.025 A 
ATOM     17  C   UNL     1     -14.094   6.212 -20.263  0.00  0.00    +0.012 A 
ATOM     18  C   UNL     1     -13.592   6.586 -21.572  0.00  0.00    +0.001 A 
ATOM     19  C   UNL     1     -12.350   7.082 -21.679  0.00  0.00    +0.004 A 
ATOM     20  C   UNL     1     -11.536   7.315 -20.502  0.00  0.00    +0.046 A 
ATOM     21  C   UNL     1     -11.935   6.969 -19.265  0.00  0.00    +0.125 A 
BRANCH  21  22
ATOM     22  O   UNL     1     -11.188   7.413 -18.190  0.00  0.00    -0.506 OA
ATOM     23  H   UNL     1     -10.253   7.183 -18.326  0.00  0.00    +0.292 HD
ENDBRANCH  21  22
ENDBRANCH   8  16
BRANCH   4  24
ATOM     24  O   UNL     1     -12.963   0.307 -16.400  0.00  0.00    -0.503 OA
ATOM     25  H   UNL     1     -12.761  -0.159 -17.234  0.00  0.00    +0.292 HD
ENDBRANCH   4  24
BRANCH   5  26
ATOM     26  O   UNL     1     -12.068   1.122 -18.821  0.00  0.00    -0.503 OA
ATOM     27  H   UNL     1     -11.705   1.596 -19.590  0.00  0.00    +0.292 HD
ENDBRANCH   5  26
BRANCH  11  28
ATOM     28  O   UNL     1     -15.355   9.972 -15.827  0.00  0.00    -0.503 OA
ATOM     29  H   UNL     1     -14.955  10.160 -14.941  0.00  0.00    +0.292 HD
ENDBRANCH  11  28
TORSDOF 5
ENDMDL
MODEL 2
REMARK VINA RESULT:      -7.6      0.230      5.315
REMARK  Name = min_compound995.pdb
REMARK  5 active torsions:
REMARK  status: ('A' for Active; 'I' for Inactive)
REMARK    1  A    between atoms: _6  and  _24
REMARK    2  A    between atoms: _8  and  _9
REMARK    3  A    between atoms: _12  and  _25
REMARK    4  A    between atoms: _15  and  _22
REMARK    5  A    between atoms: _19  and  _23
REMARK                            x       y       z     vdW  Elec       q    Type
REMARK                         _______ _______ _______ _____ _____    ______ ____
ROOT
ATOM      1  O   UNL     1     -14.479   4.770 -15.420  0.00  0.00    -0.483 OA
ATOM      2  C   UNL     1     -14.844   6.050 -15.764  0.00  0.00    +0.231 C 
ATOM      3  C   UNL     1     -15.558   6.724 -14.762  0.00  0.00    +0.071 C 
ATOM      4  C   UNL     1     -15.871   8.058 -14.930  0.00  0.00    +0.158 C 
ATOM      5  C   UNL     1     -15.450   8.732 -16.066  0.00  0.00    +0.158 C 
ATOM      6  C   UNL     1     -14.739   8.064 -17.063  0.00  0.00    +0.057 C 
ATOM      7  C   UNL     1     -14.478   6.681 -16.967  0.00  0.00    +0.009 C 
ATOM      8  C   UNL     1     -13.695   5.868 -17.972  0.00  0.00    +0.003 C 
ATOM      9  C   UNL     1     -13.444   4.428 -17.614  0.00  0.00    +0.025 C 
ATOM     10  C   UNL     1     -12.997   3.446 -18.504  0.00  0.00    +0.060 C 
ATOM     11  C   UNL     1     -12.811   2.133 -18.066  0.00  0.00    +0.160 C 
ATOM     12  C   UNL     1     -13.082   1.672 -16.766  0.00  0.00    +0.204 C 
ATOM     13  C   UNL     1     -13.619   2.655 -15.927  0.00  0.00    +0.157 C 
ATOM     14  O   UNL     1     -12.882   0.460 -16.413  0.00  0.00    -0.288 OA
ATOM     15  C   UNL     1     -13.824   3.988 -16.342  0.00  0.00    +0.114 C 
ENDROOT
BRANCH   8  16
ATOM     16  C   UNL     1     -13.253   6.407 -19.150  0.00  0.00    +0.025 A 
ATOM     17  C   UNL     1     -14.084   6.281 -20.374  0.00  0.00    +0.012 A 
ATOM     18  C   UNL     1     -13.574   6.632 -21.688  0.00  0.00    +0.001 A 
ATOM     19  C   UNL     1     -12.328   7.118 -21.797  0.00  0.00    +0.004 A 
ATOM     20  C   UNL     1     -11.518   7.364 -20.620  0.00  0.00    +0.046 A 
ATOM     21  C   UNL     1     -11.924   7.039 -19.380  0.00  0.00    +0.125 A 
BRANCH  21  22
ATOM     22  O   UNL     1     -11.178   7.495 -18.309  0.00  0.00    -0.506 OA
ATOM     23  H   UNL     1     -11.194   6.833 -17.596  0.00  0.00    +0.292 HD
ENDBRANCH  21  22
ENDBRANCH   8  16
BRANCH   4  24
ATOM     24  O   UNL     1     -16.559   8.722 -13.956  0.00  0.00    -0.503 OA
ATOM     25  H   UNL     1     -16.601   9.644 -14.275  0.00  0.00    +0.292 HD
ENDBRANCH   4  24
BRANCH   5  26
ATOM     26  O   UNL     1     -15.736  10.067 -16.157  0.00  0.00    -0.503 OA
ATOM     27  H   UNL     1     -15.324  10.406 -16.970  0.00  0.00    +0.292 HD
ENDBRANCH   5  26
BRANCH  11  28
ATOM     28  O   UNL     1     -12.335   1.197 -18.956  0.00  0.00    -0.503 OA
ATOM     29  H   UNL     1     -11.400   1.164 -18.634  0.00  0.00    +0.292 HD
ENDBRANCH  11  28
TORSDOF 5
ENDMDL
MODEL 3
REMARK VINA RESULT:      -7.6      2.962      5.058
REMARK  Name = min_compound995.pdb
REMARK  5 active torsions:
REMARK  status: ('A' for Active; 'I' for Inactive)
REMARK    1  A    between atoms: _6  and  _24
REMARK    2  A    between atoms: _8  and  _9
REMARK    3  A    between atoms: _12  and  _25
REMARK    4  A    between atoms: _15  and  _22
REMARK    5  A    between atoms: _19  and  _23
REMARK                            x       y       z     vdW  Elec       q    Type
REMARK                         _______ _______ _______ _____ _____    ______ ____
ROOT
ATOM      1  O   UNL     1     -15.290   4.375 -18.527  0.00  0.00    -0.483 OA
ATOM      2  C   UNL     1     -14.740   3.449 -19.382  0.00  0.00    +0.231 C 
ATOM      3  C   UNL     1     -15.231   3.528 -20.694  0.00  0.00    +0.071 C 
ATOM      4  C   UNL     1     -14.667   2.743 -21.679  0.00  0.00    +0.158 C 
ATOM      5  C   UNL     1     -13.600   1.910 -21.378  0.00  0.00    +0.158 C 
ATOM      6  C   UNL     1     -13.110   1.831 -20.074  0.00  0.00    +0.057 C 
ATOM      7  C   UNL     1     -13.718   2.551 -19.024  0.00  0.00    +0.009 C 
ATOM      8  C   UNL     1     -13.252   2.561 -17.587  0.00  0.00    +0.003 C 
ATOM      9  C   UNL     1     -13.983   3.489 -16.655  0.00  0.00    +0.025 C 
ATOM     10  C   UNL     1     -13.905   3.449 -15.259  0.00  0.00    +0.060 C 
ATOM     11  C   UNL     1     -14.641   4.352 -14.489  0.00  0.00    +0.160 C 
ATOM     12  C   UNL     1     -15.526   5.314 -15.003  0.00  0.00    +0.204 C 
ATOM     13  C   UNL     1     -15.656   5.264 -16.395  0.00  0.00    +0.157 C 
ATOM     14  O   UNL     1     -16.168   6.127 -14.252  0.00  0.00    -0.288 OA
ATOM     15  C   UNL     1     -14.931   4.360 -17.200  0.00  0.00    +0.114 C 
ENDROOT
BRANCH   8  16
ATOM     16  C   UNL     1     -12.231   1.759 -17.153  0.00  0.00    +0.025 A 
ATOM     17  C   UNL     1     -12.475   0.309 -16.938  0.00  0.00    +0.012 A 
ATOM     18  C   UNL     1     -11.505  -0.542 -16.273  0.00  0.00    +0.001 A 
ATOM     19  C   UNL     1     -10.338  -0.015 -15.873  0.00  0.00    +0.004 A 
ATOM     20  C   UNL     1     -10.007   1.367 -16.160  0.00  0.00    +0.046 A 
ATOM     21  C   UNL     1     -10.870   2.212 -16.751  0.00  0.00    +0.125 A 
BRANCH  21  22
ATOM     22  O   UNL     1     -10.398   3.443 -17.167  0.00  0.00    -0.506 OA
ATOM     23  H   UNL     1     -11.136   4.075 -17.215  0.00  0.00    +0.292 HD
ENDBRANCH  21  22
ENDBRANCH   8  16
BRANCH   4  24
ATOM     24  O   UNL     1     -15.135   2.819 -22.959  0.00  0.00    -0.503 OA
ATOM     25  H   UNL     1     -15.569   3.692 -23.006  0.00  0.00    +0.292 HD
ENDBRANCH   4  24
BRANCH   5  26
ATOM     26  O   UNL     1     -13.041   1.196 -22.402  0.00  0.00    -0.503 OA
ATOM     27  H   UNL     1     -13.434   0.306 -22.395  0.00  0.00    +0.292 HD
ENDBRANCH   5  26
BRANCH  11  28
ATOM     28  O   UNL     1     -14.514   4.313 -13.118  0.00  0.00    -0.503 OA
ATOM     29  H   UNL     1     -14.683   3.346 -12.992  0.00  0.00    +0.292 HD
ENDBRANCH  11  28
TORSDOF 5
ENDMDL
MODEL 4
REMARK VINA RESULT:      -7.5      2.488      7.157
REMARK  Name = min_compound995.pdb
REMARK  5 active torsions:
REMARK  status: ('A' for Active; 'I' for Inactive)
REMARK    1  A    between atoms: _6  and  _24
REMARK    2  A    between atoms: _8  and  _9
REMARK    3  A    between atoms: _12  and  _25
REMARK    4  A    between atoms: _15  and  _22
REMARK    5  A    between atoms: _19  and  _23
REMARK                            x       y       z     vdW  Elec       q    Type
REMARK                         _______ _______ _______ _____ _____    ______ ____
ROOT
ATOM      1  O   UNL     1     -13.215   6.390 -17.538  0.00  0.00    -0.483 OA
ATOM      2  C   UNL     1     -14.328   7.027 -17.042  0.00  0.00    +0.231 C 
ATOM      3  C   UNL     1     -14.565   8.284 -17.618  0.00  0.00    +0.071 C 
ATOM      4  C   UNL     1     -15.722   8.969 -17.303  0.00  0.00    +0.158 C 
ATOM      5  C   UNL     1     -16.656   8.400 -16.452  0.00  0.00    +0.158 C 
ATOM      6  C   UNL     1     -16.423   7.150 -15.879  0.00  0.00    +0.057 C 
ATOM      7  C   UNL     1     -15.214   6.460 -16.107  0.00  0.00    +0.009 C 
ATOM      8  C   UNL     1     -14.871   5.092 -15.562  0.00  0.00    +0.003 C 
ATOM      9  C   UNL     1     -13.569   4.498 -16.024  0.00  0.00    +0.025 C 
ATOM     10  C   UNL     1     -12.938   3.395 -15.438  0.00  0.00    +0.060 C 
ATOM     11  C   UNL     1     -11.719   2.935 -15.941  0.00  0.00    +0.160 C 
ATOM     12  C   UNL     1     -11.011   3.525 -17.001  0.00  0.00    +0.204 C 
ATOM     13  C   UNL     1     -11.618   4.682 -17.501  0.00  0.00    +0.157 C 
ATOM     14  O   UNL     1      -9.902   3.055 -17.431  0.00  0.00    -0.288 OA
ATOM     15  C   UNL     1     -12.846   5.176 -17.011  0.00  0.00    +0.114 C 
ENDROOT
BRANCH   8  16
ATOM     16  C   UNL     1     -15.693   4.438 -14.685  0.00  0.00    +0.025 A 
ATOM     17  C   UNL     1     -15.645   4.777 -13.239  0.00  0.00    +0.012 A 
ATOM     18  C   UNL     1     -16.324   3.972 -12.240  0.00  0.00    +0.001 A 
ATOM     19  C   UNL     1     -17.045   2.911 -12.633  0.00  0.00    +0.004 A 
ATOM     20  C   UNL     1     -17.214   2.605 -14.040  0.00  0.00    +0.046 A 
ATOM     21  C   UNL     1     -16.594   3.297 -15.012  0.00  0.00    +0.125 A 
BRANCH  21  22
ATOM     22  O   UNL     1     -16.973   3.067 -16.322  0.00  0.00    -0.506 OA
ATOM     23  H   UNL     1     -17.885   3.377 -16.456  0.00  0.00    +0.292 HD
ENDBRANCH  21  22
ENDBRANCH   8  16
BRANCH   4  24
ATOM     24  O   UNL     1     -15.962  10.189 -17.865  0.00  0.00    -0.503 OA
ATOM     25  H   UNL     1     -16.924  10.192 -18.035  0.00  0.00    +0.292 HD
ENDBRANCH   4  24
BRANCH   5  26
ATOM     26  O   UNL     1     -17.811   9.095 -16.217  0.00  0.00    -0.503 OA
ATOM     27  H   UNL     1     -18.197   8.763 -15.389  0.00  0.00    +0.292 HD
ENDBRANCH   5  26
BRANCH  11  28
ATOM     28  O   UNL     1     -11.141   1.824 -15.368  0.00  0.00    -0.503 OA
ATOM     29  H   UNL     1     -10.634   2.286 -14.654  0.00  0.00    +0.292 HD
ENDBRANCH  11  28
TORSDOF 5
ENDMDL
MODEL 5
REMARK VINA RESULT:      -7.5      3.104      6.556
REMARK  Name = min_compound995.pdb
REMARK  5 active torsions:
REMARK  status: ('A' for Active; 'I' for Inactive)
REMARK    1  A    between atoms: _6  and  _24
REMARK    2  A    between atoms: _8  and  _9
REMARK    3  A    between atoms: _12  and  _25
REMARK    4  A    between atoms: _15  and  _22
REMARK    5  A    between atoms: _19  and  _23
REMARK                            x       y       z     vdW  Elec       q    Type
REMARK                         _______ _______ _______ _____ _____    ______ ____
ROOT
ATOM      1  O   UNL     1     -15.550   4.023 -18.554  0.00  0.00    -0.483 OA
ATOM      2  C   UNL     1     -15.121   4.116 -17.252  0.00  0.00    +0.231 C 
ATOM      3  C   UNL     1     -15.908   4.961 -16.455  0.00  0.00    +0.071 C 
ATOM      4  C   UNL     1     -15.664   5.040 -15.098  0.00  0.00    +0.158 C 
ATOM      5  C   UNL     1     -14.671   4.260 -14.526  0.00  0.00    +0.158 C 
ATOM      6  C   UNL     1     -13.888   3.418 -15.316  0.00  0.00    +0.057 C 
ATOM      7  C   UNL     1     -14.049   3.377 -16.717  0.00  0.00    +0.009 C 
ATOM      8  C   UNL     1     -13.278   2.484 -17.661  0.00  0.00    +0.003 C 
ATOM      9  C   UNL     1     -13.692   2.526 -19.106  0.00  0.00    +0.025 C 
ATOM     10  C   UNL     1     -12.946   2.006 -20.170  0.00  0.00    +0.060 C 
ATOM     11  C   UNL     1     -13.420   2.114 -21.478  0.00  0.00    +0.160 C 
ATOM     12  C   UNL     1     -14.609   2.762 -21.853  0.00  0.00    +0.204 C 
ATOM     13  C   UNL     1     -15.283   3.355 -20.780  0.00  0.00    +0.157 C 
ATOM     14  O   UNL     1     -15.005   2.822 -23.068  0.00  0.00    -0.288 OA
ATOM     15  C   UNL     1     -14.827   3.270 -19.447  0.00  0.00    +0.114 C 
ENDROOT
BRANCH   8  16
ATOM     16  C   UNL     1     -12.250   1.691 -17.226  0.00  0.00    +0.025 A 
ATOM     17  C   UNL     1     -12.483   0.242 -17.001  0.00  0.00    +0.012 A 
ATOM     18  C   UNL     1     -11.504  -0.598 -16.335  0.00  0.00    +0.001 A 
ATOM     19  C   UNL     1     -10.339  -0.061 -15.942  0.00  0.00    +0.004 A 
ATOM     20  C   UNL     1     -10.019   1.322 -16.239  0.00  0.00    +0.046 A 
ATOM     21  C   UNL     1     -10.891   2.157 -16.832  0.00  0.00    +0.125 A 
BRANCH  21  22
ATOM     22  O   UNL     1     -10.429   3.388 -17.257  0.00  0.00    -0.506 OA
ATOM     23  H   UNL     1     -10.242   3.950 -16.486  0.00  0.00    +0.292 HD
ENDBRANCH  21  22
ENDBRANCH   8  16
BRANCH   4  24
ATOM     24  O   UNL     1     -16.429   5.855 -14.317  0.00  0.00    -0.503 OA
ATOM     25  H   UNL     1     -15.910   6.679 -14.245  0.00  0.00    +0.292 HD
ENDBRANCH   4  24
BRANCH   5  26
ATOM     26  O   UNL     1     -14.507   4.332 -13.169  0.00  0.00    -0.503 OA
ATOM     27  H   UNL     1     -13.553   4.304 -12.982  0.00  0.00    +0.292 HD
ENDBRANCH   5  26
BRANCH  11  28
ATOM     28  O   UNL     1     -12.683   1.560 -22.500  0.00  0.00    -0.503 OA
ATOM     29  H   UNL     1     -12.708   2.330 -23.122  0.00  0.00    +0.292 HD
ENDBRANCH  11  28
TORSDOF 5
ENDMDL
MODEL 6
REMARK VINA RESULT:      -7.3     14.172     17.086
REMARK  Name = min_compound995.pdb
REMARK  5 active torsions:
REMARK  status: ('A' for Active; 'I' for Inactive)
REMARK    1  A    between atoms: _6  and  _24
REMARK    2  A    between atoms: _8  and  _9
REMARK    3  A    between atoms: _12  and  _25
REMARK    4  A    between atoms: _15  and  _22
REMARK    5  A    between atoms: _19  and  _23
REMARK                            x       y       z     vdW  Elec       q    Type
REMARK                         _______ _______ _______ _____ _____    ______ ____
ROOT
ATOM      1  O   UNL     1     -17.532  -3.550  -1.817  0.00  0.00    -0.483 OA
ATOM      2  C   UNL     1     -18.063  -2.776  -2.821  0.00  0.00    +0.231 C 
ATOM      3  C   UNL     1     -19.443  -2.953  -3.003  0.00  0.00    +0.071 C 
ATOM      4  C   UNL     1     -20.121  -2.142  -3.891  0.00  0.00    +0.158 C 
ATOM      5  C   UNL     1     -19.447  -1.137  -4.568  0.00  0.00    +0.158 C 
ATOM      6  C   UNL     1     -18.075  -0.959  -4.388  0.00  0.00    +0.057 C 
ATOM      7  C   UNL     1     -17.333  -1.825  -3.558  0.00  0.00    +0.009 C 
ATOM      8  C   UNL     1     -15.854  -1.705  -3.270  0.00  0.00    +0.003 C 
ATOM      9  C   UNL     1     -15.290  -2.673  -2.266  0.00  0.00    +0.025 C 
ATOM     10  C   UNL     1     -13.926  -2.918  -2.067  0.00  0.00    +0.060 C 
ATOM     11  C   UNL     1     -13.513  -3.852  -1.115  0.00  0.00    +0.160 C 
ATOM     12  C   UNL     1     -14.375  -4.637  -0.330  0.00  0.00    +0.204 C 
ATOM     13  C   UNL     1     -15.729  -4.439  -0.621  0.00  0.00    +0.157 C 
ATOM     14  O   UNL     1     -13.943  -5.471   0.538  0.00  0.00    -0.288 OA
ATOM     15  C   UNL     1     -16.178  -3.508  -1.581  0.00  0.00    +0.114 C 
ENDROOT
BRANCH   8  16
ATOM     16  C   UNL     1     -15.069  -0.777  -3.900  0.00  0.00    +0.025 A 
ATOM     17  C   UNL     1     -14.739   0.497  -3.211  0.00  0.00    +0.012 A 
ATOM     18  C   UNL     1     -14.104   1.602  -3.905  0.00  0.00    +0.001 A 
ATOM     19  C   UNL     1     -13.772   1.460  -5.197  0.00  0.00    +0.004 A 
ATOM     20  C   UNL     1     -13.971   0.198  -5.883  0.00  0.00    +0.046 A 
ATOM     21  C   UNL     1     -14.574  -0.855  -5.303  0.00  0.00    +0.125 A 
BRANCH  21  22
ATOM     22  O   UNL     1     -14.536  -2.072  -5.958  0.00  0.00    -0.506 OA
ATOM     23  H   UNL     1     -14.549  -1.925  -6.919  0.00  0.00    +0.292 HD
ENDBRANCH  21  22
ENDBRANCH   8  16
BRANCH   4  24
ATOM     24  O   UNL     1     -21.465  -2.304  -4.068  0.00  0.00    -0.503 OA
ATOM     25  H   UNL     1     -21.863  -1.538  -3.611  0.00  0.00    +0.292 HD
ENDBRANCH   4  24
BRANCH   5  26
ATOM     26  O   UNL     1     -20.177  -0.324  -5.393  0.00  0.00    -0.503 OA
ATOM     27  H   UNL     1     -21.111  -0.584  -5.318  0.00  0.00    +0.292 HD
ENDBRANCH   5  26
BRANCH  11  28
ATOM     28  O   UNL     1     -12.165  -4.045  -0.915  0.00  0.00    -0.503 OA
ATOM     29  H   UNL     1     -11.958  -4.480  -1.779  0.00  0.00    +0.292 HD
ENDBRANCH  11  28
TORSDOF 5
ENDMDL
MODEL 7
REMARK VINA RESULT:      -7.3     14.239     16.762
REMARK  Name = min_compound995.pdb
REMARK  5 active torsions:
REMARK  status: ('A' for Active; 'I' for Inactive)
REMARK    1  A    between atoms: _6  and  _24
REMARK    2  A    between atoms: _8  and  _9
REMARK    3  A    between atoms: _12  and  _25
REMARK    4  A    between atoms: _15  and  _22
REMARK    5  A    between atoms: _19  and  _23
REMARK                            x       y       z     vdW  Elec       q    Type
REMARK                         _______ _______ _______ _____ _____    ______ ____
ROOT
ATOM      1  O   UNL     1     -17.349  -3.852  -1.977  0.00  0.00    -0.483 OA
ATOM      2  C   UNL     1     -16.016  -3.716  -1.668  0.00  0.00    +0.231 C 
ATOM      3  C   UNL     1     -15.542  -4.684  -0.770  0.00  0.00    +0.071 C 
ATOM      4  C   UNL     1     -14.194  -4.739  -0.479  0.00  0.00    +0.158 C 
ATOM      5  C   UNL     1     -13.313  -3.866  -1.099  0.00  0.00    +0.158 C 
ATOM      6  C   UNL     1     -13.782  -2.903  -1.993  0.00  0.00    +0.057 C 
ATOM      7  C   UNL     1     -15.162  -2.759  -2.247  0.00  0.00    +0.009 C 
ATOM      8  C   UNL     1     -15.775  -1.773  -3.215  0.00  0.00    +0.003 C 
ATOM      9  C   UNL     1     -17.263  -1.868  -3.411  0.00  0.00    +0.025 C 
ATOM     10  C   UNL     1     -18.055  -0.894  -4.030  0.00  0.00    +0.060 C 
ATOM     11  C   UNL     1     -19.434  -1.080  -4.145  0.00  0.00    +0.160 C 
ATOM     12  C   UNL     1     -20.143  -2.182  -3.639  0.00  0.00    +0.204 C 
ATOM     13  C   UNL     1     -19.338  -3.090  -2.942  0.00  0.00    +0.157 C 
ATOM     14  O   UNL     1     -21.407  -2.309  -3.783  0.00  0.00    -0.288 OA
ATOM     15  C   UNL     1     -17.944  -2.928  -2.803  0.00  0.00    +0.114 C 
ENDROOT
BRANCH   8  16
ATOM     16  C   UNL     1     -15.019  -0.836  -3.866  0.00  0.00    +0.025 A 
ATOM     17  C   UNL     1     -14.646   0.422  -3.168  0.00  0.00    +0.012 A 
ATOM     18  C   UNL     1     -14.042   1.539  -3.871  0.00  0.00    +0.001 A 
ATOM     19  C   UNL     1     -13.779   1.422  -5.182  0.00  0.00    +0.004 A 
ATOM     20  C   UNL     1     -14.021   0.177  -5.882  0.00  0.00    +0.046 A 
ATOM     21  C   UNL     1     -14.599  -0.886  -5.295  0.00  0.00    +0.125 A 
BRANCH  21  22
ATOM     22  O   UNL     1     -14.602  -2.088  -5.976  0.00  0.00    -0.506 OA
ATOM     23  H   UNL     1     -14.871  -1.939  -6.899  0.00  0.00    +0.292 HD
ENDBRANCH  21  22
ENDBRANCH   8  16
BRANCH   4  24
ATOM     24  O   UNL     1     -13.724  -5.682   0.389  0.00  0.00    -0.503 OA
ATOM     25  H   UNL     1     -12.821  -5.381   0.608  0.00  0.00    +0.292 HD
ENDBRANCH   4  24
BRANCH   5  26
ATOM     26  O   UNL     1     -11.980  -4.000  -0.819  0.00  0.00    -0.503 OA
ATOM     27  H   UNL     1     -11.763  -4.947  -0.848  0.00  0.00    +0.292 HD
ENDBRANCH   5  26
BRANCH  11  28
ATOM     28  O   UNL     1     -20.181  -0.121  -4.792  0.00  0.00    -0.503 OA
ATOM     29  H   UNL     1     -20.977  -0.148  -4.204  0.00  0.00    +0.292 HD
ENDBRANCH  11  28
TORSDOF 5
ENDMDL
MODEL 8
REMARK VINA RESULT:      -7.2      2.503      6.745
REMARK  Name = min_compound995.pdb
REMARK  5 active torsions:
REMARK  status: ('A' for Active; 'I' for Inactive)
REMARK    1  A    between atoms: _6  and  _24
REMARK    2  A    between atoms: _8  and  _9
REMARK    3  A    between atoms: _12  and  _25
REMARK    4  A    between atoms: _15  and  _22
REMARK    5  A    between atoms: _19  and  _23
REMARK                            x       y       z     vdW  Elec       q    Type
REMARK                         _______ _______ _______ _____ _____    ______ ____
ROOT
ATOM      1  O   UNL     1     -15.726   5.781 -20.133  0.00  0.00    -0.483 OA
ATOM      2  C   UNL     1     -15.345   6.629 -19.122  0.00  0.00    +0.231 C 
ATOM      3  C   UNL     1     -16.040   7.848 -19.114  0.00  0.00    +0.071 C 
ATOM      4  C   UNL     1     -15.846   8.735 -18.073  0.00  0.00    +0.158 C 
ATOM      5  C   UNL     1     -14.996   8.405 -17.029  0.00  0.00    +0.158 C 
ATOM      6  C   UNL     1     -14.305   7.193 -17.034  0.00  0.00    +0.057 C 
ATOM      7  C   UNL     1     -14.410   6.301 -18.122  0.00  0.00    +0.009 C 
ATOM      8  C   UNL     1     -13.731   4.955 -18.218  0.00  0.00    +0.003 C 
ATOM      9  C   UNL     1     -14.072   4.120 -19.422  0.00  0.00    +0.025 C 
ATOM     10  C   UNL     1     -13.361   2.991 -19.843  0.00  0.00    +0.060 C 
ATOM     11  C   UNL     1     -13.759   2.298 -20.988  0.00  0.00    +0.160 C 
ATOM     12  C   UNL     1     -14.828   2.665 -21.821  0.00  0.00    +0.204 C 
ATOM     13  C   UNL     1     -15.458   3.851 -21.428  0.00  0.00    +0.157 C 
ATOM     14  O   UNL     1     -15.159   1.986 -22.853  0.00  0.00    -0.288 OA
ATOM     15  C   UNL     1     -15.076   4.578 -20.281  0.00  0.00    +0.114 C 
ENDROOT
BRANCH   8  16
ATOM     16  C   UNL     1     -12.843   4.525 -17.269  0.00  0.00    +0.025 A 
ATOM     17  C   UNL     1     -11.441   5.016 -17.297  0.00  0.00    +0.012 A 
ATOM     18  C   UNL     1     -10.407   4.432 -16.462  0.00  0.00    +0.001 A 
ATOM     19  C   UNL     1     -10.730   3.445 -15.614  0.00  0.00    +0.004 A 
ATOM     20  C   UNL     1     -12.105   3.007 -15.469  0.00  0.00    +0.046 A 
ATOM     21  C   UNL     1     -13.104   3.491 -16.228  0.00  0.00    +0.125 A 
BRANCH  21  22
ATOM     22  O   UNL     1     -14.403   3.168 -15.882  0.00  0.00    -0.506 OA
ATOM     23  H   UNL     1     -14.756   3.843 -15.277  0.00  0.00    +0.292 HD
ENDBRANCH  21  22
ENDBRANCH   8  16
BRANCH   4  24
ATOM     24  O   UNL     1     -16.523   9.920 -18.056  0.00  0.00    -0.503 OA
ATOM     25  H   UNL     1     -17.464   9.661 -18.101  0.00  0.00    +0.292 HD
ENDBRANCH   4  24
BRANCH   5  26
ATOM     26  O   UNL     1     -14.883   9.294 -15.994  0.00  0.00    -0.503 OA
ATOM     27  H   UNL     1     -15.221   8.863 -15.191  0.00  0.00    +0.292 HD
ENDBRANCH   5  26
BRANCH  11  28
ATOM     28  O   UNL     1     -13.062   1.169 -21.356  0.00  0.00    -0.503 OA
ATOM     29  H   UNL     1     -13.643   0.499 -20.917  0.00  0.00    +0.292 HD
ENDBRANCH  11  28
TORSDOF 5
ENDMDL
MODEL 9
REMARK VINA RESULT:      -7.2      2.466      4.256
REMARK  Name = min_compound995.pdb
REMARK  5 active torsions:
REMARK  status: ('A' for Active; 'I' for Inactive)
REMARK    1  A    between atoms: _6  and  _24
REMARK    2  A    between atoms: _8  and  _9
REMARK    3  A    between atoms: _12  and  _25
REMARK    4  A    between atoms: _15  and  _22
REMARK    5  A    between atoms: _19  and  _23
REMARK                            x       y       z     vdW  Elec       q    Type
REMARK                         _______ _______ _______ _____ _____    ______ ____
ROOT
ATOM      1  O   UNL     1     -15.576   6.130 -20.072  0.00  0.00    -0.483 OA
ATOM      2  C   UNL     1     -15.063   4.859 -20.173  0.00  0.00    +0.231 C 
ATOM      3  C   UNL     1     -15.482   4.169 -21.320  0.00  0.00    +0.071 C 
ATOM      4  C   UNL     1     -14.936   2.933 -21.608  0.00  0.00    +0.158 C 
ATOM      5  C   UNL     1     -13.956   2.399 -20.786  0.00  0.00    +0.158 C 
ATOM      6  C   UNL     1     -13.538   3.084 -19.645  0.00  0.00    +0.057 C 
ATOM      7  C   UNL     1     -14.134   4.306 -19.271  0.00  0.00    +0.009 C 
ATOM      8  C   UNL     1     -13.739   5.143 -18.076  0.00  0.00    +0.003 C 
ATOM      9  C   UNL     1     -14.437   6.468 -17.930  0.00  0.00    +0.025 C 
ATOM     10  C   UNL     1     -14.429   7.255 -16.773  0.00  0.00    +0.060 C 
ATOM     11  C   UNL     1     -15.126   8.464 -16.743  0.00  0.00    +0.160 C 
ATOM     12  C   UNL     1     -15.905   8.972 -17.797  0.00  0.00    +0.204 C 
ATOM     13  C   UNL     1     -15.971   8.117 -18.902  0.00  0.00    +0.157 C 
ATOM     14  O   UNL     1     -16.514  10.094 -17.721  0.00  0.00    -0.288 OA
ATOM     15  C   UNL     1     -15.284   6.886 -18.961  0.00  0.00    +0.114 C 
ENDROOT
BRANCH   8  16
ATOM     16  C   UNL     1     -12.809   4.712 -17.170  0.00  0.00    +0.025 A 
ATOM     17  C   UNL     1     -11.414   5.217 -17.249  0.00  0.00    +0.012 A 
ATOM     18  C   UNL     1     -10.341   4.635 -16.464  0.00  0.00    +0.001 A 
ATOM     19  C   UNL     1     -10.620   3.635 -15.615  0.00  0.00    +0.004 A 
ATOM     20  C   UNL     1     -11.983   3.182 -15.419  0.00  0.00    +0.046 A 
ATOM     21  C   UNL     1     -13.017   3.664 -16.131  0.00  0.00    +0.125 A 
BRANCH  21  22
ATOM     22  O   UNL     1     -14.297   3.324 -15.736  0.00  0.00    -0.506 OA
ATOM     23  H   UNL     1     -14.940   3.677 -16.375  0.00  0.00    +0.292 HD
ENDBRANCH  21  22
ENDBRANCH   8  16
BRANCH   4  24
ATOM     24  O   UNL     1     -15.334   2.259 -22.725  0.00  0.00    -0.503 OA
ATOM     25  H   UNL     1     -16.299   2.409 -22.767  0.00  0.00    +0.292 HD
ENDBRANCH   4  24
BRANCH   5  26
ATOM     26  O   UNL     1     -13.408   1.198 -21.147  0.00  0.00    -0.503 OA
ATOM     27  H   UNL     1     -12.615   1.056 -20.602  0.00  0.00    +0.292 HD
ENDBRANCH   5  26
BRANCH  11  28
ATOM     28  O   UNL     1     -15.069   9.235 -15.603  0.00  0.00    -0.503 OA
ATOM     29  H   UNL     1     -15.865   8.864 -15.146  0.00  0.00    +0.292 HD
ENDBRANCH  11  28
TORSDOF 5
ENDMDL
