MODEL 1
REMARK VINA RESULT:      -5.5      0.000      0.000
REMARK  Name = min_compound99.pdb
REMARK  3 active torsions:
REMARK  status: ('A' for Active; 'I' for Inactive)
REMARK    1  A    between atoms: _8  and  _11
REMARK    2  A    between atoms: _9  and  _13
REMARK    3  A    between atoms: _10  and  _12
REMARK                            x       y       z     vdW  Elec       q    Type
REMARK                         _______ _______ _______ _____ _____    ______ ____
ROOT
ATOM      1  N   UNL     1     -10.084   1.768 -17.397  0.00  0.00    +0.006 NA
ATOM      2  C   UNL     1     -11.121   2.532 -17.229  0.00  0.00    +0.391 C 
ATOM      3  C   UNL     1     -12.477   1.979 -16.798  0.00  0.00    +0.137 C 
ATOM      4  C   UNL     1     -12.522   0.527 -16.618  0.00  0.00    +0.099 C 
ATOM      5  C   UNL     1     -11.309  -0.203 -16.823  0.00  0.00    +0.078 C 
ATOM      6  N   UNL     1     -13.513   2.739 -16.611  0.00  0.00    -0.269 NA
ATOM      7  C   UNL     1     -13.311   4.083 -16.823  0.00  0.00    +0.172 C 
ATOM      8  C   UNL     1     -14.457   5.006 -16.578  0.00  0.00    +0.041 C 
ATOM      9  C   UNL     1     -11.982   4.618 -17.269  0.00  0.00    +0.152 C 
ATOM     10  C   UNL     1     -11.846   6.103 -17.510  0.00  0.00    +0.093 C 
ATOM     11  N   UNL     1     -10.939   3.875 -17.468  0.00  0.00    -0.042 NA
ATOM     12  C   UNL     1     -10.168   0.417 -17.180  0.00  0.00    +0.311 C 
ENDROOT
BRANCH  12  13
ATOM     13  N   UNL     1      -9.025  -0.329 -17.354  0.00  0.00    -0.247 N 
ATOM     14  H   UNL     1      -8.261   0.137 -16.866  0.00  0.00    +0.288 HD
ATOM     15  H   UNL     1      -8.806  -0.506 -18.327  0.00  0.00    +0.288 HD
ENDBRANCH  12  13
TORSDOF 1
ENDMDL
MODEL 2
REMARK VINA RESULT:      -5.5      1.142      4.431
REMARK  Name = min_compound99.pdb
REMARK  3 active torsions:
REMARK  status: ('A' for Active; 'I' for Inactive)
REMARK    1  A    between atoms: _8  and  _11
REMARK    2  A    between atoms: _9  and  _13
REMARK    3  A    between atoms: _10  and  _12
REMARK                            x       y       z     vdW  Elec       q    Type
REMARK                         _______ _______ _______ _____ _____    ______ ____
ROOT
ATOM      1  N   UNL     1     -11.093   4.327 -17.502  0.00  0.00    +0.006 NA
ATOM      2  C   UNL     1     -11.242   3.075 -17.189  0.00  0.00    +0.391 C 
ATOM      3  C   UNL     1     -12.554   2.526 -16.634  0.00  0.00    +0.137 C 
ATOM      4  C   UNL     1     -13.614   3.520 -16.459  0.00  0.00    +0.099 C 
ATOM      5  C   UNL     1     -13.330   4.865 -16.851  0.00  0.00    +0.078 C 
ATOM      6  N   UNL     1     -12.715   1.272 -16.336  0.00  0.00    -0.269 NA
ATOM      7  C   UNL     1     -11.625   0.463 -16.555  0.00  0.00    +0.172 C 
ATOM      8  C   UNL     1     -11.770  -0.994 -16.271  0.00  0.00    +0.041 C 
ATOM      9  C   UNL     1     -10.330   1.013 -17.078  0.00  0.00    +0.152 C 
ATOM     10  C   UNL     1      -9.167   0.068 -17.264  0.00  0.00    +0.093 C 
ATOM     11  N   UNL     1     -10.148   2.261 -17.375  0.00  0.00    -0.042 NA
ATOM     12  C   UNL     1     -12.129   5.213 -17.353  0.00  0.00    +0.311 C 
ENDROOT
BRANCH  12  13
ATOM     13  N   UNL     1     -11.910   6.518 -17.727  0.00  0.00    -0.247 N 
ATOM     14  H   UNL     1     -12.294   7.127 -17.006  0.00  0.00    +0.288 HD
ATOM     15  H   UNL     1     -12.272   6.738 -18.647  0.00  0.00    +0.288 HD
ENDBRANCH  12  13
TORSDOF 1
ENDMDL
MODEL 3
REMARK VINA RESULT:      -5.5      1.479      1.980
REMARK  Name = min_compound99.pdb
REMARK  3 active torsions:
REMARK  status: ('A' for Active; 'I' for Inactive)
REMARK    1  A    between atoms: _8  and  _11
REMARK    2  A    between atoms: _9  and  _13
REMARK    3  A    between atoms: _10  and  _12
REMARK                            x       y       z     vdW  Elec       q    Type
REMARK                         _______ _______ _______ _____ _____    ______ ____
ROOT
ATOM      1  N   UNL     1     -11.426   0.575 -17.959  0.00  0.00    +0.006 NA
ATOM      2  C   UNL     1     -12.108   1.618 -17.596  0.00  0.00    +0.391 C 
ATOM      3  C   UNL     1     -11.841   2.349 -16.283  0.00  0.00    +0.137 C 
ATOM      4  C   UNL     1     -10.779   1.768 -15.458  0.00  0.00    +0.099 C 
ATOM      5  C   UNL     1     -10.094   0.623 -15.974  0.00  0.00    +0.078 C 
ATOM      6  N   UNL     1     -12.507   3.404 -15.922  0.00  0.00    -0.269 NA
ATOM      7  C   UNL     1     -13.474   3.827 -16.804  0.00  0.00    +0.172 C 
ATOM      8  C   UNL     1     -14.239   5.060 -16.459  0.00  0.00    +0.041 C 
ATOM      9  C   UNL     1     -13.749   3.090 -18.082  0.00  0.00    +0.152 C 
ATOM     10  C   UNL     1     -14.847   3.598 -18.986  0.00  0.00    +0.093 C 
ATOM     11  N   UNL     1     -13.100   2.033 -18.456  0.00  0.00    -0.042 NA
ATOM     12  C   UNL     1     -10.416   0.089 -17.168  0.00  0.00    +0.311 C 
ENDROOT
BRANCH  12  13
ATOM     13  N   UNL     1      -9.718  -1.005 -17.625  0.00  0.00    -0.247 N 
ATOM     14  H   UNL     1      -8.754  -0.723 -17.794  0.00  0.00    +0.288 HD
ATOM     15  H   UNL     1     -10.139  -1.437 -18.439  0.00  0.00    +0.288 HD
ENDBRANCH  12  13
TORSDOF 1
ENDMDL
MODEL 4
REMARK VINA RESULT:      -5.4      1.829      2.496
REMARK  Name = min_compound99.pdb
REMARK  3 active torsions:
REMARK  status: ('A' for Active; 'I' for Inactive)
REMARK    1  A    between atoms: _8  and  _11
REMARK    2  A    between atoms: _9  and  _13
REMARK    3  A    between atoms: _10  and  _12
REMARK                            x       y       z     vdW  Elec       q    Type
REMARK                         _______ _______ _______ _____ _____    ______ ____
ROOT
ATOM      1  N   UNL     1     -12.196   1.466 -17.572  0.00  0.00    +0.006 NA
ATOM      2  C   UNL     1     -12.163   2.757 -17.712  0.00  0.00    +0.391 C 
ATOM      3  C   UNL     1     -11.333   3.653 -16.796  0.00  0.00    +0.137 C 
ATOM      4  C   UNL     1     -10.604   2.950 -15.739  0.00  0.00    +0.099 C 
ATOM      5  C   UNL     1     -10.714   1.524 -15.698  0.00  0.00    +0.078 C 
ATOM      6  N   UNL     1     -11.281   4.943 -16.941  0.00  0.00    -0.269 NA
ATOM      7  C   UNL     1     -12.023   5.455 -17.980  0.00  0.00    +0.172 C 
ATOM      8  C   UNL     1     -11.963   6.926 -18.219  0.00  0.00    +0.041 C 
ATOM      9  C   UNL     1     -12.856   4.572 -18.862  0.00  0.00    +0.152 C 
ATOM     10  C   UNL     1     -13.667   5.211 -19.964  0.00  0.00    +0.093 C 
ATOM     11  N   UNL     1     -12.926   3.285 -18.729  0.00  0.00    -0.042 NA
ATOM     12  C   UNL     1     -11.466   0.850 -16.588  0.00  0.00    +0.311 C 
ENDROOT
BRANCH  12  13
ATOM     13  N   UNL     1     -11.529  -0.522 -16.513  0.00  0.00    -0.247 N 
ATOM     14  H   UNL     1     -10.578  -0.885 -16.472  0.00  0.00    +0.288 HD
ATOM     15  H   UNL     1     -12.067  -0.940 -17.263  0.00  0.00    +0.288 HD
ENDBRANCH  12  13
TORSDOF 1
ENDMDL
MODEL 5
REMARK VINA RESULT:      -5.3      1.173      5.028
REMARK  Name = min_compound99.pdb
REMARK  3 active torsions:
REMARK  status: ('A' for Active; 'I' for Inactive)
REMARK    1  A    between atoms: _8  and  _11
REMARK    2  A    between atoms: _9  and  _13
REMARK    3  A    between atoms: _10  and  _12
REMARK                            x       y       z     vdW  Elec       q    Type
REMARK                         _______ _______ _______ _____ _____    ______ ____
ROOT
ATOM      1  N   UNL     1     -13.543   3.333 -16.430  0.00  0.00    +0.006 NA
ATOM      2  C   UNL     1     -12.519   2.564 -16.646  0.00  0.00    +0.391 C 
ATOM      3  C   UNL     1     -11.201   3.101 -17.198  0.00  0.00    +0.137 C 
ATOM      4  C   UNL     1     -11.192   4.536 -17.487  0.00  0.00    +0.099 C 
ATOM      5  C   UNL     1     -12.380   5.276 -17.194  0.00  0.00    +0.078 C 
ATOM      6  N   UNL     1     -10.167   2.340 -17.400  0.00  0.00    -0.269 NA
ATOM      7  C   UNL     1     -10.334   1.013 -17.082  0.00  0.00    +0.172 C 
ATOM      8  C   UNL     1      -9.164   0.104 -17.252  0.00  0.00    +0.041 C 
ATOM      9  C   UNL     1     -11.640   0.486 -16.563  0.00  0.00    +0.152 C 
ATOM     10  C   UNL     1     -11.755  -0.989 -16.263  0.00  0.00    +0.093 C 
ATOM     11  N   UNL     1     -12.683   1.227 -16.361  0.00  0.00    -0.042 NA
ATOM     12  C   UNL     1     -13.473   4.679 -16.682  0.00  0.00    +0.311 C 
ENDROOT
BRANCH  12  13
ATOM     13  N   UNL     1     -14.587   5.438 -16.407  0.00  0.00    -0.247 N 
ATOM     14  H   UNL     1     -15.220   5.378 -17.203  0.00  0.00    +0.288 HD
ATOM     15  H   UNL     1     -14.368   6.397 -16.162  0.00  0.00    +0.288 HD
ENDBRANCH  12  13
TORSDOF 1
ENDMDL
MODEL 6
REMARK VINA RESULT:      -5.3      2.461      3.316
REMARK  Name = min_compound99.pdb
REMARK  3 active torsions:
REMARK  status: ('A' for Active; 'I' for Inactive)
REMARK    1  A    between atoms: _8  and  _11
REMARK    2  A    between atoms: _9  and  _13
REMARK    3  A    between atoms: _10  and  _12
REMARK                            x       y       z     vdW  Elec       q    Type
REMARK                         _______ _______ _______ _____ _____    ______ ____
ROOT
ATOM      1  N   UNL     1     -11.508   1.624 -16.974  0.00  0.00    +0.006 NA
ATOM      2  C   UNL     1     -12.089   2.403 -17.834  0.00  0.00    +0.391 C 
ATOM      3  C   UNL     1     -12.019   3.925 -17.731  0.00  0.00    +0.137 C 
ATOM      4  C   UNL     1     -11.273   4.431 -16.577  0.00  0.00    +0.099 C 
ATOM      5  C   UNL     1     -10.670   3.469 -15.707  0.00  0.00    +0.078 C 
ATOM      6  N   UNL     1     -12.582   4.711 -18.598  0.00  0.00    -0.269 NA
ATOM      7  C   UNL     1     -13.248   4.083 -19.624  0.00  0.00    +0.172 C 
ATOM      8  C   UNL     1     -13.875   4.939 -20.673  0.00  0.00    +0.041 C 
ATOM      9  C   UNL     1     -13.334   2.588 -19.708  0.00  0.00    +0.152 C 
ATOM     10  C   UNL     1     -14.109   1.972 -20.849  0.00  0.00    +0.093 C 
ATOM     11  N   UNL     1     -12.785   1.787 -18.850  0.00  0.00    -0.042 NA
ATOM     12  C   UNL     1     -10.789   2.146 -15.929  0.00  0.00    +0.311 C 
ENDROOT
BRANCH  12  13
ATOM     13  N   UNL     1     -10.180   1.262 -15.069  0.00  0.00    -0.247 N 
ATOM     14  H   UNL     1     -10.491   1.471 -14.122  0.00  0.00    +0.288 HD
ATOM     15  H   UNL     1      -9.170   1.257 -15.149  0.00  0.00    +0.288 HD
ENDBRANCH  12  13
TORSDOF 1
ENDMDL
MODEL 7
REMARK VINA RESULT:      -5.2     10.477     11.529
REMARK  Name = min_compound99.pdb
REMARK  3 active torsions:
REMARK  status: ('A' for Active; 'I' for Inactive)
REMARK    1  A    between atoms: _8  and  _11
REMARK    2  A    between atoms: _9  and  _13
REMARK    3  A    between atoms: _10  and  _12
REMARK                            x       y       z     vdW  Elec       q    Type
REMARK                         _______ _______ _______ _____ _____    ______ ____
ROOT
ATOM      1  N   UNL     1     -16.188  -0.842  -5.843  0.00  0.00    +0.006 NA
ATOM      2  C   UNL     1     -16.609   0.066  -6.671  0.00  0.00    +0.391 C 
ATOM      3  C   UNL     1     -15.657   1.023  -7.383  0.00  0.00    +0.137 C 
ATOM      4  C   UNL     1     -14.243   0.856  -7.040  0.00  0.00    +0.099 C 
ATOM      5  C   UNL     1     -13.905  -0.188  -6.122  0.00  0.00    +0.078 C 
ATOM      6  N   UNL     1     -16.069   1.921  -8.225  0.00  0.00    -0.269 NA
ATOM      7  C   UNL     1     -17.427   1.954  -8.441  0.00  0.00    +0.172 C 
ATOM      8  C   UNL     1     -17.951   2.938  -9.434  0.00  0.00    +0.041 C 
ATOM      9  C   UNL     1     -18.361   1.027  -7.720  0.00  0.00    +0.152 C 
ATOM     10  C   UNL     1     -19.843   1.144  -7.987  0.00  0.00    +0.093 C 
ATOM     11  N   UNL     1     -17.969   0.130  -6.871  0.00  0.00    -0.042 NA
ATOM     12  C   UNL     1     -14.848  -0.983  -5.582  0.00  0.00    +0.311 C 
ENDROOT
BRANCH  12  13
ATOM     13  N   UNL     1     -14.470  -1.980  -4.713  0.00  0.00    -0.247 N 
ATOM     14  H   UNL     1     -14.528  -2.871  -5.203  0.00  0.00    +0.288 HD
ATOM     15  H   UNL     1     -15.001  -1.983  -3.850  0.00  0.00    +0.288 HD
ENDBRANCH  12  13
TORSDOF 1
ENDMDL
MODEL 8
REMARK VINA RESULT:      -5.0     11.491     12.652
REMARK  Name = min_compound99.pdb
REMARK  3 active torsions:
REMARK  status: ('A' for Active; 'I' for Inactive)
REMARK    1  A    between atoms: _8  and  _11
REMARK    2  A    between atoms: _9  and  _13
REMARK    3  A    between atoms: _10  and  _12
REMARK                            x       y       z     vdW  Elec       q    Type
REMARK                         _______ _______ _______ _____ _____    ______ ____
ROOT
ATOM      1  N   UNL     1     -15.662   1.644  -7.178  0.00  0.00    +0.006 NA
ATOM      2  C   UNL     1     -15.411   0.953  -6.107  0.00  0.00    +0.391 C 
ATOM      3  C   UNL     1     -16.108  -0.372  -5.812  0.00  0.00    +0.137 C 
ATOM      4  C   UNL     1     -17.096  -0.786  -6.811  0.00  0.00    +0.099 C 
ATOM      5  C   UNL     1     -17.273   0.057  -7.953  0.00  0.00    +0.078 C 
ATOM      6  N   UNL     1     -15.849  -1.076  -4.752  0.00  0.00    -0.269 NA
ATOM      7  C   UNL     1     -14.898  -0.553  -3.908  0.00  0.00    +0.172 C 
ATOM      8  C   UNL     1     -14.530  -1.344  -2.698  0.00  0.00    +0.041 C 
ATOM      9  C   UNL     1     -14.233   0.762  -4.191  0.00  0.00    +0.152 C 
ATOM     10  C   UNL     1     -13.220   1.287  -3.202  0.00  0.00    +0.093 C 
ATOM     11  N   UNL     1     -14.483   1.482  -5.239  0.00  0.00    -0.042 NA
ATOM     12  C   UNL     1     -16.570   1.195  -8.103  0.00  0.00    +0.311 C 
ENDROOT
BRANCH  12  13
ATOM     13  N   UNL     1     -16.769   1.965  -9.225  0.00  0.00    -0.247 N 
ATOM     14  H   UNL     1     -16.925   1.343 -10.017  0.00  0.00    +0.288 HD
ATOM     15  H   UNL     1     -16.019   2.624  -9.398  0.00  0.00    +0.288 HD
ENDBRANCH  12  13
TORSDOF 1
ENDMDL
MODEL 9
REMARK VINA RESULT:      -5.0     12.856     13.254
REMARK  Name = min_compound99.pdb
REMARK  3 active torsions:
REMARK  status: ('A' for Active; 'I' for Inactive)
REMARK    1  A    between atoms: _8  and  _11
REMARK    2  A    between atoms: _9  and  _13
REMARK    3  A    between atoms: _10  and  _12
REMARK                            x       y       z     vdW  Elec       q    Type
REMARK                         _______ _______ _______ _____ _____    ______ ____
ROOT
ATOM      1  N   UNL     1     -15.863   0.205  -5.226  0.00  0.00    +0.006 NA
ATOM      2  C   UNL     1     -16.149   1.447  -4.977  0.00  0.00    +0.391 C 
ATOM      3  C   UNL     1     -15.282   2.315  -4.069  0.00  0.00    +0.137 C 
ATOM      4  C   UNL     1     -14.126   1.633  -3.483  0.00  0.00    +0.099 C 
ATOM      5  C   UNL     1     -13.914   0.265  -3.844  0.00  0.00    +0.078 C 
ATOM      6  N   UNL     1     -15.552   3.563  -3.830  0.00  0.00    -0.269 NA
ATOM      7  C   UNL     1     -16.673   4.059  -4.453  0.00  0.00    +0.172 C 
ATOM      8  C   UNL     1     -17.004   5.499  -4.249  0.00  0.00    +0.041 C 
ATOM      9  C   UNL     1     -17.535   3.194  -5.326  0.00  0.00    +0.152 C 
ATOM     10  C   UNL     1     -18.768   3.802  -5.952  0.00  0.00    +0.093 C 
ATOM     11  N   UNL     1     -17.287   1.946  -5.570  0.00  0.00    -0.042 NA
ATOM     12  C   UNL     1     -14.748  -0.379  -4.681  0.00  0.00    +0.311 C 
ENDROOT
BRANCH  12  13
ATOM     13  N   UNL     1     -14.493  -1.691  -5.006  0.00  0.00    -0.247 N 
ATOM     14  H   UNL     1     -14.259  -2.194  -4.151  0.00  0.00    +0.288 HD
ATOM     15  H   UNL     1     -13.781  -1.797  -5.719  0.00  0.00    +0.288 HD
ENDBRANCH  12  13
TORSDOF 1
ENDMDL
