MODEL 1
REMARK VINA RESULT:      -3.8      0.000      0.000
REMARK  Name = min_compound3.pdb
REMARK  3 active torsions:
REMARK  status: ('A' for Active; 'I' for Inactive)
REMARK    1  A    between atoms: _3  and  _8
REMARK    2  A    between atoms: _8  and  _9
REMARK    3  A    between atoms: _9  and  _10
REMARK                            x       y       z     vdW  Elec       q    Type
REMARK                         _______ _______ _______ _____ _____    ______ ____
ROOT
ATOM      1  H   UNL     1     -10.807  -1.447 -17.961  0.00  0.00    +0.122 HD
ATOM      2  N   UNL     1     -10.928  -0.445 -17.810  0.00  0.00    -0.314 NA
ATOM      3  C   UNL     1     -11.875  -0.266 -16.681  0.00  0.00    +0.096 C 
ATOM      4  C   UNL     1     -12.293   1.323 -16.483  0.00  0.00    +0.099 C 
ATOM      5  N   UNL     1     -11.027   1.839 -15.868  0.00  0.00    -0.299 NA
ATOM      6  C   UNL     1     -10.079   1.657 -17.018  0.00  0.00    +0.099 C 
ATOM      7  C   UNL     1      -9.662   0.071 -17.195  0.00  0.00    +0.096 C 
ENDROOT
BRANCH   5   8
ATOM      8  C   UNL     1     -11.162   3.294 -15.615  0.00  0.00    +0.099 C 
BRANCH   8   9
ATOM      9  C   UNL     1     -10.549   4.173 -16.725  0.00  0.00    +0.093 C 
BRANCH   9  10
ATOM     10  N   UNL     1     -11.541   5.086 -17.301  0.00  0.00    -0.329 NA
ATOM     11  H   UNL     1     -11.984   4.635 -18.101  0.00  0.00    +0.118 HD
ATOM     12  H   UNL     1     -11.058   5.904 -17.672  0.00  0.00    +0.118 HD
ENDBRANCH   9  10
ENDBRANCH   8   9
ENDBRANCH   5   8
TORSDOF 3
ENDMDL
MODEL 2
REMARK VINA RESULT:      -3.8      2.027      2.850
REMARK  Name = min_compound3.pdb
REMARK  3 active torsions:
REMARK  status: ('A' for Active; 'I' for Inactive)
REMARK    1  A    between atoms: _3  and  _8
REMARK    2  A    between atoms: _8  and  _9
REMARK    3  A    between atoms: _9  and  _10
REMARK                            x       y       z     vdW  Elec       q    Type
REMARK                         _______ _______ _______ _____ _____    ______ ____
ROOT
ATOM      1  H   UNL     1      -9.204  -1.368 -16.127  0.00  0.00    +0.122 HD
ATOM      2  N   UNL     1      -9.765  -0.516 -16.148  0.00  0.00    -0.314 NA
ATOM      3  C   UNL     1      -9.415   0.228 -17.384  0.00  0.00    +0.096 C 
ATOM      4  C   UNL     1     -10.124   1.723 -17.416  0.00  0.00    +0.099 C 
ATOM      5  N   UNL     1     -11.536   1.323 -17.722  0.00  0.00    -0.299 NA
ATOM      6  C   UNL     1     -11.879   0.576 -16.466  0.00  0.00    +0.099 C 
ATOM      7  C   UNL     1     -11.176  -0.916 -16.455  0.00  0.00    +0.096 C 
ENDROOT
BRANCH   5   8
ATOM      8  C   UNL     1     -12.388   2.536 -17.779  0.00  0.00    +0.099 C 
BRANCH   8   9
ATOM      9  C   UNL     1     -13.337   2.568 -18.996  0.00  0.00    +0.093 C 
BRANCH   9  10
ATOM     10  N   UNL     1     -12.964   1.564 -19.997  0.00  0.00    -0.329 NA
ATOM     11  H   UNL     1     -13.808   1.214 -20.449  0.00  0.00    +0.118 HD
ATOM     12  H   UNL     1     -12.548   0.764 -19.521  0.00  0.00    +0.118 HD
ENDBRANCH   9  10
ENDBRANCH   8   9
ENDBRANCH   5   8
TORSDOF 3
ENDMDL
MODEL 3
REMARK VINA RESULT:      -3.7      1.336      2.027
REMARK  Name = min_compound3.pdb
REMARK  3 active torsions:
REMARK  status: ('A' for Active; 'I' for Inactive)
REMARK    1  A    between atoms: _3  and  _8
REMARK    2  A    between atoms: _8  and  _9
REMARK    3  A    between atoms: _9  and  _10
REMARK                            x       y       z     vdW  Elec       q    Type
REMARK                         _______ _______ _______ _____ _____    ______ ____
ROOT
ATOM      1  H   UNL     1     -10.682  -1.971 -16.471  0.00  0.00    +0.122 HD
ATOM      2  N   UNL     1     -10.706  -0.958 -16.357  0.00  0.00    -0.314 NA
ATOM      3  C   UNL     1     -10.119  -0.349 -17.577  0.00  0.00    +0.096 C 
ATOM      4  C   UNL     1      -9.929   1.287 -17.410  0.00  0.00    +0.099 C 
ATOM      5  N   UNL     1     -11.358   1.718 -17.545  0.00  0.00    -0.299 NA
ATOM      6  C   UNL     1     -11.940   1.101 -16.306  0.00  0.00    +0.099 C 
ATOM      7  C   UNL     1     -12.135  -0.526 -16.492  0.00  0.00    +0.096 C 
ENDROOT
BRANCH   5   8
ATOM      8  C   UNL     1     -11.440   3.193 -17.402  0.00  0.00    +0.099 C 
BRANCH   8   9
ATOM      9  C   UNL     1     -10.161   3.828 -16.817  0.00  0.00    +0.093 C 
BRANCH   9  10
ATOM     10  N   UNL     1     -10.268   4.025 -15.369  0.00  0.00    -0.329 NA
ATOM     11  H   UNL     1      -9.342   4.210 -14.987  0.00  0.00    +0.118 HD
ATOM     12  H   UNL     1     -10.579   3.153 -14.941  0.00  0.00    +0.118 HD
ENDBRANCH   9  10
ENDBRANCH   8   9
ENDBRANCH   5   8
TORSDOF 3
ENDMDL
MODEL 4
REMARK VINA RESULT:      -3.7     11.981     12.707
REMARK  Name = min_compound3.pdb
REMARK  3 active torsions:
REMARK  status: ('A' for Active; 'I' for Inactive)
REMARK    1  A    between atoms: _3  and  _8
REMARK    2  A    between atoms: _8  and  _9
REMARK    3  A    between atoms: _9  and  _10
REMARK                            x       y       z     vdW  Elec       q    Type
REMARK                         _______ _______ _______ _____ _____    ______ ____
ROOT
ATOM      1  H   UNL     1     -14.685  -2.581  -6.388  0.00  0.00    +0.122 HD
ATOM      2  N   UNL     1     -14.487  -1.639  -6.050  0.00  0.00    -0.314 NA
ATOM      3  C   UNL     1     -15.649  -0.780  -6.388  0.00  0.00    +0.096 C 
ATOM      4  C   UNL     1     -15.344   0.814  -6.061  0.00  0.00    +0.099 C 
ATOM      5  N   UNL     1     -15.446   0.784  -4.566  0.00  0.00    -0.299 NA
ATOM      6  C   UNL     1     -14.266  -0.082  -4.235  0.00  0.00    +0.099 C 
ATOM      7  C   UNL     1     -14.589  -1.668  -4.555  0.00  0.00    +0.096 C 
ENDROOT
BRANCH   5   8
ATOM      8  C   UNL     1     -15.180   2.142  -4.030  0.00  0.00    +0.099 C 
BRANCH   8   9
ATOM      9  C   UNL     1     -16.341   3.133  -4.255  0.00  0.00    +0.093 C 
BRANCH   9  10
ATOM     10  N   UNL     1     -15.976   4.494  -3.850  0.00  0.00    -0.329 NA
ATOM     11  H   UNL     1     -15.025   4.690  -4.160  0.00  0.00    +0.118 HD
ATOM     12  H   UNL     1     -15.954   4.539  -2.831  0.00  0.00    +0.118 HD
ENDBRANCH   9  10
ENDBRANCH   8   9
ENDBRANCH   5   8
TORSDOF 3
ENDMDL
MODEL 5
REMARK VINA RESULT:      -3.6      2.402      3.071
REMARK  Name = min_compound3.pdb
REMARK  3 active torsions:
REMARK  status: ('A' for Active; 'I' for Inactive)
REMARK    1  A    between atoms: _3  and  _8
REMARK    2  A    between atoms: _8  and  _9
REMARK    3  A    between atoms: _9  and  _10
REMARK                            x       y       z     vdW  Elec       q    Type
REMARK                         _______ _______ _______ _____ _____    ______ ____
ROOT
ATOM      1  H   UNL     1      -9.644   0.796 -14.564  0.00  0.00    +0.122 HD
ATOM      2  N   UNL     1      -9.928   1.075 -15.503  0.00  0.00    -0.314 NA
ATOM      3  C   UNL     1     -10.689  -0.050 -16.101  0.00  0.00    +0.096 C 
ATOM      4  C   UNL     1     -11.024   0.222 -17.699  0.00  0.00    +0.099 C 
ATOM      5  N   UNL     1     -12.109   1.247 -17.555  0.00  0.00    -0.299 NA
ATOM      6  C   UNL     1     -11.327   2.379 -16.954  0.00  0.00    +0.099 C 
ATOM      7  C   UNL     1     -11.012   2.099 -15.359  0.00  0.00    +0.096 C 
ENDROOT
BRANCH   5   8
ATOM      8  C   UNL     1     -12.564   1.671 -18.901  0.00  0.00    +0.099 C 
BRANCH   8   9
ATOM      9  C   UNL     1     -13.670   2.747 -18.868  0.00  0.00    +0.093 C 
BRANCH   9  10
ATOM     10  N   UNL     1     -14.581   2.621 -20.009  0.00  0.00    -0.329 NA
ATOM     11  H   UNL     1     -15.072   1.730 -19.947  0.00  0.00    +0.118 HD
ATOM     12  H   UNL     1     -14.030   2.579 -20.867  0.00  0.00    +0.118 HD
ENDBRANCH   9  10
ENDBRANCH   8   9
ENDBRANCH   5   8
TORSDOF 3
ENDMDL
MODEL 6
REMARK VINA RESULT:      -3.6      2.087      2.392
REMARK  Name = min_compound3.pdb
REMARK  3 active torsions:
REMARK  status: ('A' for Active; 'I' for Inactive)
REMARK    1  A    between atoms: _3  and  _8
REMARK    2  A    between atoms: _8  and  _9
REMARK    3  A    between atoms: _9  and  _10
REMARK                            x       y       z     vdW  Elec       q    Type
REMARK                         _______ _______ _______ _____ _____    ______ ____
ROOT
ATOM      1  H   UNL     1      -8.962   0.116 -17.171  0.00  0.00    +0.122 HD
ATOM      2  N   UNL     1      -9.727   0.790 -17.138  0.00  0.00    -0.314 NA
ATOM      3  C   UNL     1     -10.928   0.145 -17.724  0.00  0.00    +0.096 C 
ATOM      4  C   UNL     1     -12.173   1.220 -17.900  0.00  0.00    +0.099 C 
ATOM      5  N   UNL     1     -12.597   1.347 -16.468  0.00  0.00    -0.299 NA
ATOM      6  C   UNL     1     -11.378   2.004 -15.887  0.00  0.00    +0.099 C 
ATOM      7  C   UNL     1     -10.151   0.917 -15.706  0.00  0.00    +0.096 C 
ENDROOT
BRANCH   5   8
ATOM      8  C   UNL     1     -13.722   2.309 -16.373  0.00  0.00    +0.099 C 
BRANCH   8   9
ATOM      9  C   UNL     1     -13.369   3.598 -15.602  0.00  0.00    +0.093 C 
BRANCH   9  10
ATOM     10  N   UNL     1     -14.337   3.874 -14.536  0.00  0.00    -0.329 NA
ATOM     11  H   UNL     1     -15.255   3.536 -14.824  0.00  0.00    +0.118 HD
ATOM     12  H   UNL     1     -14.430   4.884 -14.430  0.00  0.00    +0.118 HD
ENDBRANCH   9  10
ENDBRANCH   8   9
ENDBRANCH   5   8
TORSDOF 3
ENDMDL
MODEL 7
REMARK VINA RESULT:      -3.5      2.094      3.959
REMARK  Name = min_compound3.pdb
REMARK  3 active torsions:
REMARK  status: ('A' for Active; 'I' for Inactive)
REMARK    1  A    between atoms: _3  and  _8
REMARK    2  A    between atoms: _8  and  _9
REMARK    3  A    between atoms: _9  and  _10
REMARK                            x       y       z     vdW  Elec       q    Type
REMARK                         _______ _______ _______ _____ _____    ______ ____
ROOT
ATOM      1  H   UNL     1     -14.370   4.332 -17.722  0.00  0.00    +0.122 HD
ATOM      2  N   UNL     1     -14.088   3.354 -17.653  0.00  0.00    -0.314 NA
ATOM      3  C   UNL     1     -12.745   3.222 -18.270  0.00  0.00    +0.096 C 
ATOM      4  C   UNL     1     -12.281   1.638 -18.388  0.00  0.00    +0.099 C 
ATOM      5  N   UNL     1     -11.955   1.366 -16.950  0.00  0.00    -0.299 NA
ATOM      6  C   UNL     1     -13.319   1.498 -16.338  0.00  0.00    +0.099 C 
ATOM      7  C   UNL     1     -13.762   3.082 -16.216  0.00  0.00    +0.096 C 
ENDROOT
BRANCH   5   8
ATOM      8  C   UNL     1     -11.523  -0.045 -16.804  0.00  0.00    +0.099 C 
BRANCH   8   9
ATOM      9  C   UNL     1     -10.172  -0.206 -16.075  0.00  0.00    +0.093 C 
BRANCH   9  10
ATOM     10  N   UNL     1      -9.934   0.890 -15.131  0.00  0.00    -0.329 NA
ATOM     11  H   UNL     1      -9.481   1.660 -15.621  0.00  0.00    +0.118 HD
ATOM     12  H   UNL     1      -9.269   0.576 -14.424  0.00  0.00    +0.118 HD
ENDBRANCH   9  10
ENDBRANCH   8   9
ENDBRANCH   5   8
TORSDOF 3
ENDMDL
MODEL 8
REMARK VINA RESULT:      -3.4      9.851     10.665
REMARK  Name = min_compound3.pdb
REMARK  3 active torsions:
REMARK  status: ('A' for Active; 'I' for Inactive)
REMARK    1  A    between atoms: _3  and  _8
REMARK    2  A    between atoms: _8  and  _9
REMARK    3  A    between atoms: _9  and  _10
REMARK                            x       y       z     vdW  Elec       q    Type
REMARK                         _______ _______ _______ _____ _____    ______ ____
ROOT
ATOM      1  H   UNL     1     -13.370  -1.053  -4.972  0.00  0.00    +0.122 HD
ATOM      2  N   UNL     1     -13.769  -0.683  -5.834  0.00  0.00    -0.314 NA
ATOM      3  C   UNL     1     -15.202  -1.070  -5.876  0.00  0.00    +0.096 C 
ATOM      4  C   UNL     1     -15.893  -0.689  -7.331  0.00  0.00    +0.099 C 
ATOM      5  N   UNL     1     -16.011   0.797  -7.169  0.00  0.00    -0.299 NA
ATOM      6  C   UNL     1     -14.559   1.177  -7.131  0.00  0.00    +0.099 C 
ATOM      7  C   UNL     1     -13.887   0.803  -5.672  0.00  0.00    +0.096 C 
ENDROOT
BRANCH   5   8
ATOM      8  C   UNL     1     -16.603   1.378  -8.398  0.00  0.00    +0.099 C 
BRANCH   8   9
ATOM      9  C   UNL     1     -16.556   2.921  -8.436  0.00  0.00    +0.093 C 
BRANCH   9  10
ATOM     10  N   UNL     1     -15.773   3.409  -9.574  0.00  0.00    -0.329 NA
ATOM     11  H   UNL     1     -15.434   2.613 -10.113  0.00  0.00    +0.118 HD
ATOM     12  H   UNL     1     -14.942   3.884  -9.222  0.00  0.00    +0.118 HD
ENDBRANCH   9  10
ENDBRANCH   8   9
ENDBRANCH   5   8
TORSDOF 3
ENDMDL
MODEL 9
REMARK VINA RESULT:      -3.3      1.389      1.980
REMARK  Name = min_compound3.pdb
REMARK  3 active torsions:
REMARK  status: ('A' for Active; 'I' for Inactive)
REMARK    1  A    between atoms: _3  and  _8
REMARK    2  A    between atoms: _8  and  _9
REMARK    3  A    between atoms: _9  and  _10
REMARK                            x       y       z     vdW  Elec       q    Type
REMARK                         _______ _______ _______ _____ _____    ______ ____
ROOT
ATOM      1  H   UNL     1     -10.215  -0.892 -16.538  0.00  0.00    +0.122 HD
ATOM      2  N   UNL     1     -10.861  -0.174 -16.212  0.00  0.00    -0.314 NA
ATOM      3  C   UNL     1     -10.115   1.107 -16.134  0.00  0.00    +0.096 C 
ATOM      4  C   UNL     1     -11.021   2.297 -15.424  0.00  0.00    +0.099 C 
ATOM      5  N   UNL     1     -11.966   2.594 -16.549  0.00  0.00    -0.299 NA
ATOM      6  C   UNL     1     -12.716   1.295 -16.616  0.00  0.00    +0.099 C 
ATOM      7  C   UNL     1     -11.807   0.123 -17.336  0.00  0.00    +0.096 C 
ENDROOT
BRANCH   5   8
ATOM      8  C   UNL     1     -12.918   3.649 -16.123  0.00  0.00    +0.099 C 
BRANCH   8   9
ATOM      9  C   UNL     1     -12.948   4.870 -17.067  0.00  0.00    +0.093 C 
BRANCH   9  10
ATOM     10  N   UNL     1     -11.597   5.325 -17.405  0.00  0.00    -0.329 NA
ATOM     11  H   UNL     1     -11.445   5.207 -18.406  0.00  0.00    +0.118 HD
ATOM     12  H   UNL     1     -10.920   4.716 -16.945  0.00  0.00    +0.118 HD
ENDBRANCH   9  10
ENDBRANCH   8   9
ENDBRANCH   5   8
TORSDOF 3
ENDMDL
