MODEL 1
REMARK VINA RESULT:      -6.2      0.000      0.000
REMARK  Name = min_compound940.pdb
REMARK  6 active torsions:
REMARK  status: ('A' for Active; 'I' for Inactive)
REMARK    1  A    between atoms: _3  and  _17
REMARK    2  A    between atoms: _5  and  _16
REMARK    3  A    between atoms: _8  and  _18
REMARK    4  A    between atoms: _10  and  _19
REMARK    5  A    between atoms: _11  and  _12
REMARK    6  A    between atoms: _15  and  _16
REMARK                            x       y       z     vdW  Elec       q    Type
REMARK                         _______ _______ _______ _____ _____    ______ ____
ROOT
ATOM      1  N   UNL     1     -12.707   7.590 -18.410  0.00  0.00    -0.251 NA
ATOM      2  C   UNL     1     -11.827   6.704 -18.798  0.00  0.00    +0.183 C 
ATOM      3  N   UNL     1     -11.726   5.392 -18.508  0.00  0.00    -0.290 N 
ATOM      4  H   UNL     1     -11.017   4.810 -18.864  0.00  0.00    +0.154 HD
ATOM      5  C   UNL     1     -12.700   4.957 -17.677  0.00  0.00    +0.131 A 
ATOM      6  N   UNL     1     -12.922   3.737 -17.099  0.00  0.00    -0.309 N 
ATOM      7  C   UNL     1     -14.019   3.897 -16.287  0.00  0.00    +0.201 A 
ATOM      8  N   UNL     1     -14.508   5.127 -16.318  0.00  0.00    -0.235 NA
ATOM      9  C   UNL     1     -13.695   5.771 -17.209  0.00  0.00    +0.120 A 
ATOM     10  C   UNL     1     -13.715   7.131 -17.601  0.00  0.00    +0.224 C 
ENDROOT
BRANCH   6  11
ATOM     11  C   UNL     1     -12.047   2.596 -17.238  0.00  0.00    +0.144 C 
ATOM     12  C   UNL     1     -10.682   2.546 -16.517  0.00  0.00    +0.174 C 
ATOM     13  C   UNL     1     -10.358   1.027 -16.508  0.00  0.00    +0.173 C 
ATOM     14  C   UNL     1     -11.723   0.400 -16.434  0.00  0.00    -0.016 C 
ATOM     15  C   UNL     1     -12.662   1.286 -16.801  0.00  0.00    +0.004 C 
BRANCH  12  16
ATOM     16  O   UNL     1     -10.706   3.016 -15.154  0.00  0.00    -0.387 OA
ATOM     17  H   UNL     1     -10.574   3.984 -15.225  0.00  0.00    +0.210 HD
ENDBRANCH  12  16
BRANCH  13  18
ATOM     18  O   UNL     1      -9.551   0.723 -15.372  0.00  0.00    -0.385 OA
ATOM     19  H   UNL     1      -8.778   0.225 -15.719  0.00  0.00    +0.210 HD
ENDBRANCH  13  18
BRANCH  14  20
ATOM     20  C   UNL     1     -11.948  -1.027 -16.103  0.00  0.00    +0.189 C 
BRANCH  20  21
ATOM     21  O   UNL     1     -13.350  -1.278 -16.092  0.00  0.00    -0.391 OA
ATOM     22  H   UNL     1     -13.477  -2.090 -16.613  0.00  0.00    +0.210 HD
ENDBRANCH  20  21
ENDBRANCH  14  20
ENDBRANCH   6  11
BRANCH  10  23
ATOM     23  N   UNL     1     -14.527   8.106 -16.968  0.00  0.00    -0.304 NA
ATOM     24  H   UNL     1     -15.481   7.788 -17.046  0.00  0.00    +0.121 HD
ATOM     25  H   UNL     1     -14.356   8.995 -17.424  0.00  0.00    +0.121 HD
ENDBRANCH  10  23
TORSDOF 6
ENDMDL
MODEL 2
REMARK VINA RESULT:      -6.0      1.229      2.245
REMARK  Name = min_compound940.pdb
REMARK  6 active torsions:
REMARK  status: ('A' for Active; 'I' for Inactive)
REMARK    1  A    between atoms: _3  and  _17
REMARK    2  A    between atoms: _5  and  _16
REMARK    3  A    between atoms: _8  and  _18
REMARK    4  A    between atoms: _10  and  _19
REMARK    5  A    between atoms: _11  and  _12
REMARK    6  A    between atoms: _15  and  _16
REMARK                            x       y       z     vdW  Elec       q    Type
REMARK                         _______ _______ _______ _____ _____    ______ ____
ROOT
ATOM      1  N   UNL     1     -15.357   5.200 -15.277  0.00  0.00    -0.251 NA
ATOM      2  C   UNL     1     -14.647   4.182 -14.863  0.00  0.00    +0.183 C 
ATOM      3  N   UNL     1     -13.629   3.532 -15.459  0.00  0.00    -0.290 N 
ATOM      4  H   UNL     1     -13.157   2.772 -15.050  0.00  0.00    +0.154 HD
ATOM      5  C   UNL     1     -13.323   4.031 -16.678  0.00  0.00    +0.131 A 
ATOM      6  N   UNL     1     -12.416   3.631 -17.621  0.00  0.00    -0.309 N 
ATOM      7  C   UNL     1     -12.596   4.465 -18.698  0.00  0.00    +0.201 A 
ATOM      8  N   UNL     1     -13.545   5.366 -18.498  0.00  0.00    -0.235 NA
ATOM      9  C   UNL     1     -13.971   5.104 -17.226  0.00  0.00    +0.120 A 
ATOM     10  C   UNL     1     -15.013   5.726 -16.496  0.00  0.00    +0.224 C 
ENDROOT
BRANCH   6  11
ATOM     11  C   UNL     1     -11.578   2.460 -17.503  0.00  0.00    +0.144 C 
ATOM     12  C   UNL     1     -10.403   2.418 -16.502  0.00  0.00    +0.174 C 
ATOM     13  C   UNL     1     -10.150   0.895 -16.337  0.00  0.00    +0.173 C 
ATOM     14  C   UNL     1     -11.524   0.312 -16.524  0.00  0.00    -0.016 C 
ATOM     15  C   UNL     1     -12.326   1.198 -17.135  0.00  0.00    +0.004 C 
BRANCH  12  16
ATOM     16  O   UNL     1     -10.699   2.975 -15.205  0.00  0.00    -0.387 OA
ATOM     17  H   UNL     1     -11.664   3.138 -15.222  0.00  0.00    +0.210 HD
ENDBRANCH  12  16
BRANCH  13  18
ATOM     18  O   UNL     1      -9.618   0.642 -15.038  0.00  0.00    -0.385 OA
ATOM     19  H   UNL     1      -8.668   0.428 -15.176  0.00  0.00    +0.210 HD
ENDBRANCH  13  18
BRANCH  14  20
ATOM     20  C   UNL     1     -11.873  -1.085 -16.170  0.00  0.00    +0.189 C 
BRANCH  20  21
ATOM     21  O   UNL     1     -13.291  -1.207 -16.135  0.00  0.00    -0.391 OA
ATOM     22  H   UNL     1     -13.637  -0.300 -16.210  0.00  0.00    +0.210 HD
ENDBRANCH  20  21
ENDBRANCH  14  20
ENDBRANCH   6  11
BRANCH  10  23
ATOM     23  N   UNL     1     -15.915   6.654 -17.075  0.00  0.00    -0.304 NA
ATOM     24  H   UNL     1     -16.846   6.317 -16.879  0.00  0.00    +0.121 HD
ATOM     25  H   UNL     1     -15.704   6.715 -18.064  0.00  0.00    +0.121 HD
ENDBRANCH  10  23
TORSDOF 6
ENDMDL
MODEL 3
REMARK VINA RESULT:      -5.8      3.095      3.678
REMARK  Name = min_compound940.pdb
REMARK  6 active torsions:
REMARK  status: ('A' for Active; 'I' for Inactive)
REMARK    1  A    between atoms: _3  and  _17
REMARK    2  A    between atoms: _5  and  _16
REMARK    3  A    between atoms: _8  and  _18
REMARK    4  A    between atoms: _10  and  _19
REMARK    5  A    between atoms: _11  and  _12
REMARK    6  A    between atoms: _15  and  _16
REMARK                            x       y       z     vdW  Elec       q    Type
REMARK                         _______ _______ _______ _____ _____    ______ ____
ROOT
ATOM      1  N   UNL     1     -14.823   2.256 -22.222  0.00  0.00    -0.251 NA
ATOM      2  C   UNL     1     -13.708   1.622 -21.963  0.00  0.00    +0.183 C 
ATOM      3  N   UNL     1     -12.987   1.560 -20.827  0.00  0.00    -0.290 N 
ATOM      4  H   UNL     1     -12.155   1.042 -20.740  0.00  0.00    +0.154 HD
ATOM      5  C   UNL     1     -13.523   2.283 -19.819  0.00  0.00    +0.131 A 
ATOM      6  N   UNL     1     -13.083   2.534 -18.547  0.00  0.00    -0.309 N 
ATOM      7  C   UNL     1     -13.997   3.398 -17.993  0.00  0.00    +0.201 A 
ATOM      8  N   UNL     1     -14.985   3.702 -18.821  0.00  0.00    -0.235 NA
ATOM      9  C   UNL     1     -14.693   2.980 -19.945  0.00  0.00    +0.120 A 
ATOM     10  C   UNL     1     -15.381   2.954 -21.182  0.00  0.00    +0.224 C 
ENDROOT
BRANCH   6  11
ATOM     11  C   UNL     1     -11.821   2.075 -18.015  0.00  0.00    +0.144 C 
ATOM     12  C   UNL     1     -11.270   2.627 -16.682  0.00  0.00    +0.174 C 
ATOM     13  C   UNL     1     -10.249   1.536 -16.259  0.00  0.00    +0.173 C 
ATOM     14  C   UNL     1     -10.856   0.281 -16.821  0.00  0.00    -0.016 C 
ATOM     15  C   UNL     1     -11.759   0.585 -17.768  0.00  0.00    +0.004 C 
BRANCH  12  16
ATOM     16  O   UNL     1     -12.253   2.762 -15.636  0.00  0.00    -0.387 OA
ATOM     17  H   UNL     1     -11.744   2.661 -14.806  0.00  0.00    +0.210 HD
ENDBRANCH  12  16
BRANCH  13  18
ATOM     18  O   UNL     1     -10.149   1.509 -14.836  0.00  0.00    -0.385 OA
ATOM     19  H   UNL     1     -10.787   0.824 -14.537  0.00  0.00    +0.210 HD
ENDBRANCH  13  18
BRANCH  14  20
ATOM     20  C   UNL     1     -10.417  -1.082 -16.437  0.00  0.00    +0.189 C 
BRANCH  20  21
ATOM     21  O   UNL     1      -9.115  -0.999 -15.867  0.00  0.00    -0.391 OA
ATOM     22  H   UNL     1      -9.227  -1.201 -14.921  0.00  0.00    +0.210 HD
ENDBRANCH  20  21
ENDBRANCH  14  20
ENDBRANCH   6  11
BRANCH  10  23
ATOM     23  N   UNL     1     -16.438   3.845 -21.498  0.00  0.00    -0.304 NA
ATOM     24  H   UNL     1     -17.197   3.634 -20.868  0.00  0.00    +0.121 HD
ATOM     25  H   UNL     1     -16.672   3.713 -22.475  0.00  0.00    +0.121 HD
ENDBRANCH  10  23
TORSDOF 6
ENDMDL
MODEL 4
REMARK VINA RESULT:      -5.8      9.352     10.475
REMARK  Name = min_compound940.pdb
REMARK  6 active torsions:
REMARK  status: ('A' for Active; 'I' for Inactive)
REMARK    1  A    between atoms: _3  and  _17
REMARK    2  A    between atoms: _5  and  _16
REMARK    3  A    between atoms: _8  and  _18
REMARK    4  A    between atoms: _10  and  _19
REMARK    5  A    between atoms: _11  and  _12
REMARK    6  A    between atoms: _15  and  _16
REMARK                            x       y       z     vdW  Elec       q    Type
REMARK                         _______ _______ _______ _____ _____    ______ ____
ROOT
ATOM      1  N   UNL     1     -16.232   5.154 -10.346  0.00  0.00    -0.251 NA
ATOM      2  C   UNL     1     -15.966   3.890 -10.144  0.00  0.00    +0.183 C 
ATOM      3  N   UNL     1     -16.220   3.106  -9.079  0.00  0.00    -0.290 N 
ATOM      4  H   UNL     1     -15.978   2.153  -9.035  0.00  0.00    +0.154 HD
ATOM      5  C   UNL     1     -16.843   3.764  -8.075  0.00  0.00    +0.131 A 
ATOM      6  N   UNL     1     -17.216   3.362  -6.820  0.00  0.00    -0.309 N 
ATOM      7  C   UNL     1     -17.740   4.475  -6.207  0.00  0.00    +0.201 A 
ATOM      8  N   UNL     1     -17.732   5.545  -6.987  0.00  0.00    -0.235 NA
ATOM      9  C   UNL     1     -17.196   5.083  -8.157  0.00  0.00    +0.120 A 
ATOM     10  C   UNL     1     -16.899   5.803  -9.339  0.00  0.00    +0.224 C 
ENDROOT
BRANCH   6  11
ATOM     11  C   UNL     1     -16.939   2.057  -6.265  0.00  0.00    +0.144 C 
ATOM     12  C   UNL     1     -17.699   0.806  -6.755  0.00  0.00    +0.174 C 
ATOM     13  C   UNL     1     -16.764  -0.353  -6.314  0.00  0.00    +0.173 C 
ATOM     14  C   UNL     1     -15.400   0.273  -6.404  0.00  0.00    -0.016 C 
ATOM     15  C   UNL     1     -15.503   1.612  -6.417  0.00  0.00    +0.004 C 
BRANCH  12  16
ATOM     16  O   UNL     1     -17.876   0.732  -8.183  0.00  0.00    -0.387 OA
ATOM     17  H   UNL     1     -18.775   0.360  -8.301  0.00  0.00    +0.210 HD
ENDBRANCH  12  16
BRANCH  13  18
ATOM     18  O   UNL     1     -16.922  -1.454  -7.208  0.00  0.00    -0.385 OA
ATOM     19  H   UNL     1     -16.104  -1.476  -7.752  0.00  0.00    +0.210 HD
ENDBRANCH  13  18
BRANCH  14  20
ATOM     20  C   UNL     1     -14.140  -0.507  -6.369  0.00  0.00    +0.189 C 
BRANCH  20  21
ATOM     21  O   UNL     1     -14.456  -1.880  -6.169  0.00  0.00    -0.391 OA
ATOM     22  H   UNL     1     -15.177  -1.893  -5.515  0.00  0.00    +0.210 HD
ENDBRANCH  20  21
ENDBRANCH  14  20
ENDBRANCH   6  11
BRANCH  10  23
ATOM     23  N   UNL     1     -16.974   7.216  -9.422  0.00  0.00    -0.304 NA
ATOM     24  H   UNL     1     -17.847   7.437  -9.878  0.00  0.00    +0.121 HD
ATOM     25  H   UNL     1     -16.158   7.540  -9.928  0.00  0.00    +0.121 HD
ENDBRANCH  10  23
TORSDOF 6
ENDMDL
MODEL 5
REMARK VINA RESULT:      -5.8      1.523      2.080
REMARK  Name = min_compound940.pdb
REMARK  6 active torsions:
REMARK  status: ('A' for Active; 'I' for Inactive)
REMARK    1  A    between atoms: _3  and  _17
REMARK    2  A    between atoms: _5  and  _16
REMARK    3  A    between atoms: _8  and  _18
REMARK    4  A    between atoms: _10  and  _19
REMARK    5  A    between atoms: _11  and  _12
REMARK    6  A    between atoms: _15  and  _16
REMARK                            x       y       z     vdW  Elec       q    Type
REMARK                         _______ _______ _______ _____ _____    ______ ____
ROOT
ATOM      1  N   UNL     1     -12.750   7.556 -18.081  0.00  0.00    -0.251 NA
ATOM      2  C   UNL     1     -12.029   6.466 -18.139  0.00  0.00    +0.183 C 
ATOM      3  N   UNL     1     -12.295   5.223 -17.695  0.00  0.00    -0.290 N 
ATOM      4  H   UNL     1     -11.674   4.465 -17.798  0.00  0.00    +0.154 HD
ATOM      5  C   UNL     1     -13.502   5.121 -17.095  0.00  0.00    +0.131 A 
ATOM      6  N   UNL     1     -14.118   4.073 -16.466  0.00  0.00    -0.309 N 
ATOM      7  C   UNL     1     -15.303   4.569 -15.977  0.00  0.00    +0.201 A 
ATOM      8  N   UNL     1     -15.481   5.849 -16.260  0.00  0.00    -0.235 NA
ATOM      9  C   UNL     1     -14.366   6.175 -16.981  0.00  0.00    +0.120 A 
ATOM     10  C   UNL     1     -13.990   7.434 -17.507  0.00  0.00    +0.224 C 
ENDROOT
BRANCH   6  11
ATOM     11  C   UNL     1     -13.514   2.777 -16.258  0.00  0.00    +0.144 C 
ATOM     12  C   UNL     1     -13.348   1.779 -17.424  0.00  0.00    +0.174 C 
ATOM     13  C   UNL     1     -12.243   0.823 -16.899  0.00  0.00    +0.173 C 
ATOM     14  C   UNL     1     -11.412   1.727 -16.031  0.00  0.00    -0.016 C 
ATOM     15  C   UNL     1     -12.107   2.831 -15.709  0.00  0.00    +0.004 C 
BRANCH  12  16
ATOM     16  O   UNL     1     -12.893   2.369 -18.659  0.00  0.00    -0.387 OA
ATOM     17  H   UNL     1     -13.464   1.970 -19.347  0.00  0.00    +0.210 HD
ENDBRANCH  12  16
BRANCH  13  18
ATOM     18  O   UNL     1     -11.510   0.296 -18.003  0.00  0.00    -0.385 OA
ATOM     19  H   UNL     1     -12.150  -0.248 -18.514  0.00  0.00    +0.210 HD
ENDBRANCH  13  18
BRANCH  14  20
ATOM     20  C   UNL     1     -10.063   1.367 -15.532  0.00  0.00    +0.189 C 
BRANCH  20  21
ATOM     21  O   UNL     1      -9.952  -0.052 -15.499  0.00  0.00    -0.391 OA
ATOM     22  H   UNL     1     -10.498  -0.378 -16.236  0.00  0.00    +0.210 HD
ENDBRANCH  20  21
ENDBRANCH  14  20
ENDBRANCH   6  11
BRANCH  10  23
ATOM     23  N   UNL     1     -14.680   8.636 -17.206  0.00  0.00    -0.304 NA
ATOM     24  H   UNL     1     -15.522   8.637 -17.764  0.00  0.00    +0.121 HD
ATOM     25  H   UNL     1     -14.058   9.410 -17.408  0.00  0.00    +0.121 HD
ENDBRANCH  10  23
TORSDOF 6
ENDMDL
MODEL 6
REMARK VINA RESULT:      -5.8      1.632      2.857
REMARK  Name = min_compound940.pdb
REMARK  6 active torsions:
REMARK  status: ('A' for Active; 'I' for Inactive)
REMARK    1  A    between atoms: _3  and  _17
REMARK    2  A    between atoms: _5  and  _16
REMARK    3  A    between atoms: _8  and  _18
REMARK    4  A    between atoms: _10  and  _19
REMARK    5  A    between atoms: _11  and  _12
REMARK    6  A    between atoms: _15  and  _16
REMARK                            x       y       z     vdW  Elec       q    Type
REMARK                         _______ _______ _______ _____ _____    ______ ____
ROOT
ATOM      1  N   UNL     1     -15.965   7.099 -16.291  0.00  0.00    -0.251 NA
ATOM      2  C   UNL     1     -16.076   5.900 -15.782  0.00  0.00    +0.183 C 
ATOM      3  N   UNL     1     -15.190   4.886 -15.743  0.00  0.00    -0.290 N 
ATOM      4  H   UNL     1     -15.379   4.015 -15.323  0.00  0.00    +0.154 HD
ATOM      5  C   UNL     1     -14.015   5.186 -16.340  0.00  0.00    +0.131 A 
ATOM      6  N   UNL     1     -12.896   4.433 -16.571  0.00  0.00    -0.309 N 
ATOM      7  C   UNL     1     -12.041   5.235 -17.288  0.00  0.00    +0.201 A 
ATOM      8  N   UNL     1     -12.537   6.441 -17.518  0.00  0.00    -0.235 NA
ATOM      9  C   UNL     1     -13.756   6.407 -16.899  0.00  0.00    +0.120 A 
ATOM     10  C   UNL     1     -14.756   7.408 -16.860  0.00  0.00    +0.224 C 
ENDROOT
BRANCH   6  11
ATOM     11  C   UNL     1     -12.770   3.033 -16.237  0.00  0.00    +0.144 C 
ATOM     12  C   UNL     1     -13.094   1.934 -17.272  0.00  0.00    +0.174 C 
ATOM     13  C   UNL     1     -12.347   0.698 -16.701  0.00  0.00    +0.173 C 
ATOM     14  C   UNL     1     -11.162   1.318 -16.014  0.00  0.00    -0.016 C 
ATOM     15  C   UNL     1     -11.383   2.624 -15.794  0.00  0.00    +0.004 C 
BRANCH  12  16
ATOM     16  O   UNL     1     -12.596   2.195 -18.600  0.00  0.00    -0.387 OA
ATOM     17  H   UNL     1     -13.391   2.166 -19.171  0.00  0.00    +0.210 HD
ENDBRANCH  12  16
BRANCH  13  18
ATOM     18  O   UNL     1     -11.971  -0.164 -17.773  0.00  0.00    -0.385 OA
ATOM     19  H   UNL     1     -12.215  -1.072 -17.484  0.00  0.00    +0.210 HD
ENDBRANCH  13  18
BRANCH  14  20
ATOM     20  C   UNL     1      -9.983   0.543 -15.562  0.00  0.00    +0.189 C 
BRANCH  20  21
ATOM     21  O   UNL     1      -9.381  -0.077 -16.694  0.00  0.00    -0.391 OA
ATOM     22  H   UNL     1     -10.115  -0.308 -17.290  0.00  0.00    +0.210 HD
ENDBRANCH  20  21
ENDBRANCH  14  20
ENDBRANCH   6  11
BRANCH  10  23
ATOM     23  N   UNL     1     -14.693   8.594 -17.634  0.00  0.00    -0.304 NA
ATOM     24  H   UNL     1     -13.911   8.492 -18.264  0.00  0.00    +0.121 HD
ATOM     25  H   UNL     1     -14.602   9.377 -16.997  0.00  0.00    +0.121 HD
ENDBRANCH  10  23
TORSDOF 6
ENDMDL
MODEL 7
REMARK VINA RESULT:      -5.8     14.297     16.252
REMARK  Name = min_compound940.pdb
REMARK  6 active torsions:
REMARK  status: ('A' for Active; 'I' for Inactive)
REMARK    1  A    between atoms: _3  and  _17
REMARK    2  A    between atoms: _5  and  _16
REMARK    3  A    between atoms: _8  and  _18
REMARK    4  A    between atoms: _10  and  _19
REMARK    5  A    between atoms: _11  and  _12
REMARK    6  A    between atoms: _15  and  _16
REMARK                            x       y       z     vdW  Elec       q    Type
REMARK                         _______ _______ _______ _____ _____    ______ ____
ROOT
ATOM      1  N   UNL     1     -14.829  -6.328  -1.588  0.00  0.00    -0.251 NA
ATOM      2  C   UNL     1     -13.807  -5.662  -2.060  0.00  0.00    +0.183 C 
ATOM      3  N   UNL     1     -13.733  -4.402  -2.531  0.00  0.00    -0.290 N 
ATOM      4  H   UNL     1     -12.900  -3.994  -2.862  0.00  0.00    +0.154 HD
ATOM      5  C   UNL     1     -14.920  -3.756  -2.504  0.00  0.00    +0.131 A 
ATOM      6  N   UNL     1     -15.286  -2.511  -2.941  0.00  0.00    -0.309 N 
ATOM      7  C   UNL     1     -16.640  -2.418  -2.726  0.00  0.00    +0.201 A 
ATOM      8  N   UNL     1     -17.151  -3.510  -2.180  0.00  0.00    -0.235 NA
ATOM      9  C   UNL     1     -16.065  -4.325  -2.021  0.00  0.00    +0.120 A 
ATOM     10  C   UNL     1     -16.020  -5.651  -1.527  0.00  0.00    +0.224 C 
ENDROOT
BRANCH   6  11
ATOM     11  C   UNL     1     -14.404  -1.593  -3.623  0.00  0.00    +0.144 C 
ATOM     12  C   UNL     1     -14.618  -1.239  -5.111  0.00  0.00    +0.174 C 
ATOM     13  C   UNL     1     -13.836   0.095  -5.259  0.00  0.00    +0.173 C 
ATOM     14  C   UNL     1     -13.982   0.714  -3.896  0.00  0.00    -0.016 C 
ATOM     15  C   UNL     1     -14.337  -0.218  -2.997  0.00  0.00    +0.004 C 
BRANCH  12  16
ATOM     16  O   UNL     1     -15.991  -1.007  -5.481  0.00  0.00    -0.387 OA
ATOM     17  H   UNL     1     -16.010  -0.076  -5.785  0.00  0.00    +0.210 HD
ENDBRANCH  12  16
BRANCH  13  18
ATOM     18  O   UNL     1     -14.435   0.882  -6.286  0.00  0.00    -0.385 OA
ATOM     19  H   UNL     1     -15.083   0.292  -6.732  0.00  0.00    +0.210 HD
ENDBRANCH  13  18
BRANCH  14  20
ATOM     20  C   UNL     1     -13.664   2.132  -3.605  0.00  0.00    +0.189 C 
BRANCH  20  21
ATOM     21  O   UNL     1     -14.791   2.933  -3.947  0.00  0.00    -0.391 OA
ATOM     22  H   UNL     1     -15.329   2.390  -4.549  0.00  0.00    +0.210 HD
ENDBRANCH  20  21
ENDBRANCH  14  20
ENDBRANCH   6  11
BRANCH  10  23
ATOM     23  N   UNL     1     -17.183  -6.418  -1.261  0.00  0.00    -0.304 NA
ATOM     24  H   UNL     1     -16.886  -7.378  -1.169  0.00  0.00    +0.121 HD
ATOM     25  H   UNL     1     -17.835  -6.265  -2.021  0.00  0.00    +0.121 HD
ENDBRANCH  10  23
TORSDOF 6
ENDMDL
MODEL 8
REMARK VINA RESULT:      -5.6      3.174      5.790
REMARK  Name = min_compound940.pdb
REMARK  6 active torsions:
REMARK  status: ('A' for Active; 'I' for Inactive)
REMARK    1  A    between atoms: _3  and  _17
REMARK    2  A    between atoms: _5  and  _16
REMARK    3  A    between atoms: _8  and  _18
REMARK    4  A    between atoms: _10  and  _19
REMARK    5  A    between atoms: _11  and  _12
REMARK    6  A    between atoms: _15  and  _16
REMARK                            x       y       z     vdW  Elec       q    Type
REMARK                         _______ _______ _______ _____ _____    ______ ____
ROOT
ATOM      1  N   UNL     1     -11.217  -0.466 -16.955  0.00  0.00    -0.251 NA
ATOM      2  C   UNL     1     -12.421  -0.092 -16.605  0.00  0.00    +0.183 C 
ATOM      3  N   UNL     1     -12.947   1.142 -16.481  0.00  0.00    -0.290 N 
ATOM      4  H   UNL     1     -13.879   1.310 -16.212  0.00  0.00    +0.154 HD
ATOM      5  C   UNL     1     -12.063   2.125 -16.762  0.00  0.00    +0.131 A 
ATOM      6  N   UNL     1     -12.170   3.488 -16.698  0.00  0.00    -0.309 N 
ATOM      7  C   UNL     1     -10.930   3.982 -17.025  0.00  0.00    +0.201 A 
ATOM      8  N   UNL     1     -10.052   3.029 -17.297  0.00  0.00    -0.235 NA
ATOM      9  C   UNL     1     -10.777   1.878 -17.157  0.00  0.00    +0.120 A 
ATOM     10  C   UNL     1     -10.339   0.537 -17.278  0.00  0.00    +0.224 C 
ENDROOT
BRANCH   6  11
ATOM     11  C   UNL     1     -13.338   4.194 -16.223  0.00  0.00    +0.144 C 
ATOM     12  C   UNL     1     -14.631   4.254 -17.066  0.00  0.00    +0.174 C 
ATOM     13  C   UNL     1     -15.710   4.611 -16.007  0.00  0.00    +0.173 C 
ATOM     14  C   UNL     1     -15.177   3.959 -14.761  0.00  0.00    -0.016 C 
ATOM     15  C   UNL     1     -13.869   3.692 -14.899  0.00  0.00    +0.004 C 
BRANCH  12  16
ATOM     16  O   UNL     1     -14.999   3.007 -17.689  0.00  0.00    -0.387 OA
ATOM     17  H   UNL     1     -14.674   3.088 -18.610  0.00  0.00    +0.210 HD
ENDBRANCH  12  16
BRANCH  13  18
ATOM     18  O   UNL     1     -16.967   4.074 -16.414  0.00  0.00    -0.385 OA
ATOM     19  H   UNL     1     -17.320   3.597 -15.630  0.00  0.00    +0.210 HD
ENDBRANCH  13  18
BRANCH  14  20
ATOM     20  C   UNL     1     -15.986   3.757 -13.536  0.00  0.00    +0.189 C 
BRANCH  20  21
ATOM     21  O   UNL     1     -16.816   2.614 -13.719  0.00  0.00    -0.391 OA
ATOM     22  H   UNL     1     -16.265   1.847 -13.483  0.00  0.00    +0.210 HD
ENDBRANCH  20  21
ENDBRANCH  14  20
ENDBRANCH   6  11
BRANCH  10  23
ATOM     23  N   UNL     1      -8.974   0.179 -17.412  0.00  0.00    -0.304 NA
ATOM     24  H   UNL     1      -8.484   1.004 -17.725  0.00  0.00    +0.121 HD
ATOM     25  H   UNL     1      -8.920  -0.597 -18.062  0.00  0.00    +0.121 HD
ENDBRANCH  10  23
TORSDOF 6
ENDMDL
MODEL 9
REMARK VINA RESULT:      -5.6      1.926      2.508
REMARK  Name = min_compound940.pdb
REMARK  6 active torsions:
REMARK  status: ('A' for Active; 'I' for Inactive)
REMARK    1  A    between atoms: _3  and  _17
REMARK    2  A    between atoms: _5  and  _16
REMARK    3  A    between atoms: _8  and  _18
REMARK    4  A    between atoms: _10  and  _19
REMARK    5  A    between atoms: _11  and  _12
REMARK    6  A    between atoms: _15  and  _16
REMARK                            x       y       z     vdW  Elec       q    Type
REMARK                         _______ _______ _______ _____ _____    ______ ____
ROOT
ATOM      1  N   UNL     1     -15.321   8.195 -15.870  0.00  0.00    -0.251 NA
ATOM      2  C   UNL     1     -14.662   7.670 -16.871  0.00  0.00    +0.183 C 
ATOM      3  N   UNL     1     -14.278   6.398 -17.087  0.00  0.00    -0.290 N 
ATOM      4  H   UNL     1     -13.784   6.109 -17.889  0.00  0.00    +0.154 HD
ATOM      5  C   UNL     1     -14.639   5.558 -16.091  0.00  0.00    +0.131 A 
ATOM      6  N   UNL     1     -14.394   4.226 -15.893  0.00  0.00    -0.309 N 
ATOM      7  C   UNL     1     -14.938   3.920 -14.668  0.00  0.00    +0.201 A 
ATOM      8  N   UNL     1     -15.514   4.959 -14.086  0.00  0.00    -0.235 NA
ATOM      9  C   UNL     1     -15.345   5.968 -14.994  0.00  0.00    +0.120 A 
ATOM     10  C   UNL     1     -15.719   7.329 -14.883  0.00  0.00    +0.224 C 
ENDROOT
BRANCH   6  11
ATOM     11  C   UNL     1     -13.584   3.406 -16.764  0.00  0.00    +0.144 C 
ATOM     12  C   UNL     1     -12.083   3.705 -16.971  0.00  0.00    +0.174 C 
ATOM     13  C   UNL     1     -11.538   2.352 -17.504  0.00  0.00    +0.173 C 
ATOM     14  C   UNL     1     -12.429   1.348 -16.826  0.00  0.00    -0.016 C 
ATOM     15  C   UNL     1     -13.546   1.945 -16.380  0.00  0.00    +0.004 C 
BRANCH  12  16
ATOM     16  O   UNL     1     -11.367   4.043 -15.766  0.00  0.00    -0.387 OA
ATOM     17  H   UNL     1     -11.089   4.973 -15.898  0.00  0.00    +0.210 HD
ENDBRANCH  12  16
BRANCH  13  18
ATOM     18  O   UNL     1     -10.169   2.213 -17.129  0.00  0.00    -0.385 OA
ATOM     19  H   UNL     1      -9.675   2.867 -17.672  0.00  0.00    +0.210 HD
ENDBRANCH  13  18
BRANCH  14  20
ATOM     20  C   UNL     1     -12.132  -0.103 -16.773  0.00  0.00    +0.189 C 
BRANCH  20  21
ATOM     21  O   UNL     1     -11.275  -0.435 -17.860  0.00  0.00    -0.391 OA
ATOM     22  H   UNL     1     -10.655   0.311 -17.946  0.00  0.00    +0.210 HD
ENDBRANCH  20  21
ENDBRANCH  14  20
ENDBRANCH   6  11
BRANCH  10  23
ATOM     23  N   UNL     1     -16.205   7.902 -13.681  0.00  0.00    -0.304 NA
ATOM     24  H   UNL     1     -17.211   7.930 -13.756  0.00  0.00    +0.121 HD
ATOM     25  H   UNL     1     -15.779   8.816 -13.580  0.00  0.00    +0.121 HD
ENDBRANCH  10  23
TORSDOF 6
ENDMDL
