MODEL 1
REMARK VINA RESULT:      -7.1      0.000      0.000
REMARK  Name = min_compound939.pdb
REMARK  4 active torsions:
REMARK  status: ('A' for Active; 'I' for Inactive)
REMARK    1  A    between atoms: _14  and  _15
REMARK    2  A    between atoms: _15  and  _18
REMARK    3  A    between atoms: _18  and  _19
REMARK    4  A    between atoms: _19  and  _20
REMARK                            x       y       z     vdW  Elec       q    Type
REMARK                         _______ _______ _______ _____ _____    ______ ____
ROOT
ATOM      1  C   UNL     1     -11.094  -0.828 -15.923  0.00  0.00    +0.005 C 
ATOM      2  C   UNL     1      -9.730  -0.206 -15.860  0.00  0.00    +0.005 C 
ATOM      3  C   UNL     1     -10.207   1.321 -15.483  0.00  0.00    +0.037 C 
ATOM      4  C   UNL     1     -11.078   1.898 -16.557  0.00  0.00    -0.023 A 
ATOM      5  C   UNL     1     -11.241   3.266 -16.934  0.00  0.00    +0.075 A 
ATOM      6  C   UNL     1     -10.596   4.455 -16.416  0.00  0.00    +0.260 A 
ATOM      7  O   UNL     1      -9.735   4.458 -15.543  0.00  0.00    -0.267 OA
ATOM      8  N   UNL     1     -11.034   5.618 -16.994  0.00  0.00    -0.301 N 
ATOM      9  H   UNL     1     -10.628   6.471 -16.640  0.00  0.00    +0.171 HD
ATOM     10  C   UNL     1     -11.998   5.652 -17.983  0.00  0.00    +0.220 A 
ATOM     11  N   UNL     1     -12.583   4.609 -18.494  0.00  0.00    -0.216 NA
ATOM     12  C   UNL     1     -12.177   3.431 -17.941  0.00  0.00    +0.116 A 
ATOM     13  S   UNL     1     -12.823   1.926 -18.446  0.00  0.00    -0.073 S 
ATOM     14  C   UNL     1     -11.877   1.075 -17.319  0.00  0.00    -0.004 A 
ATOM     15  C   UNL     1     -11.890  -0.411 -17.182  0.00  0.00    +0.043 C 
ENDROOT
BRANCH  10  16
ATOM     16  C   UNL     1     -12.347   7.059 -18.426  0.00  0.00    +0.375 C 
ATOM     17  O   UNL     1     -13.207   7.708 -17.859  0.00  0.00    -0.242 OA
BRANCH  16  18
ATOM     18  O   UNL     1     -11.445   7.482 -19.334  0.00  0.00    -0.459 OA
BRANCH  18  19
ATOM     19  C   UNL     1     -11.553   6.870 -20.628  0.00  0.00    +0.229 C 
ATOM     20  C   UNL     1     -11.070   7.805 -21.719  0.00  0.00    +0.048 C 
ENDBRANCH  18  19
ENDBRANCH  16  18
ENDBRANCH  10  16
TORSDOF 3
ENDMDL
MODEL 2
REMARK VINA RESULT:      -6.9      1.766      2.398
REMARK  Name = min_compound939.pdb
REMARK  4 active torsions:
REMARK  status: ('A' for Active; 'I' for Inactive)
REMARK    1  A    between atoms: _14  and  _15
REMARK    2  A    between atoms: _15  and  _18
REMARK    3  A    between atoms: _18  and  _19
REMARK    4  A    between atoms: _19  and  _20
REMARK                            x       y       z     vdW  Elec       q    Type
REMARK                         _______ _______ _______ _____ _____    ______ ____
ROOT
ATOM      1  C   UNL     1     -10.131  -0.474 -15.950  0.00  0.00    +0.005 C 
ATOM      2  C   UNL     1     -11.528  -0.806 -16.381  0.00  0.00    +0.005 C 
ATOM      3  C   UNL     1     -11.632   0.264 -17.624  0.00  0.00    +0.037 C 
ATOM      4  C   UNL     1     -11.475   1.674 -17.140  0.00  0.00    -0.023 A 
ATOM      5  C   UNL     1     -12.023   2.873 -17.691  0.00  0.00    +0.075 A 
ATOM      6  C   UNL     1     -12.895   3.054 -18.832  0.00  0.00    +0.260 A 
ATOM      7  O   UNL     1     -13.348   2.145 -19.517  0.00  0.00    -0.267 OA
ATOM      8  N   UNL     1     -13.190   4.366 -19.099  0.00  0.00    -0.301 N 
ATOM      9  H   UNL     1     -13.774   4.536 -19.905  0.00  0.00    +0.171 HD
ATOM     10  C   UNL     1     -12.702   5.417 -18.346  0.00  0.00    +0.220 A 
ATOM     11  N   UNL     1     -11.937   5.297 -17.301  0.00  0.00    -0.216 NA
ATOM     12  C   UNL     1     -11.619   4.005 -17.004  0.00  0.00    +0.116 A 
ATOM     13  S   UNL     1     -10.610   3.605 -15.678  0.00  0.00    -0.073 S 
ATOM     14  C   UNL     1     -10.700   1.945 -16.033  0.00  0.00    -0.004 A 
ATOM     15  C   UNL     1     -10.031   0.887 -15.221  0.00  0.00    +0.043 C 
ENDROOT
BRANCH  10  16
ATOM     16  C   UNL     1     -13.128   6.774 -18.871  0.00  0.00    +0.375 C 
ATOM     17  O   UNL     1     -13.556   7.637 -18.127  0.00  0.00    -0.242 OA
BRANCH  16  18
ATOM     18  O   UNL     1     -12.758   6.893 -20.161  0.00  0.00    -0.459 OA
BRANCH  18  19
ATOM     19  C   UNL     1     -11.388   7.268 -20.368  0.00  0.00    +0.229 C 
ATOM     20  C   UNL     1     -11.135   7.645 -21.814  0.00  0.00    +0.048 C 
ENDBRANCH  18  19
ENDBRANCH  16  18
ENDBRANCH  10  16
TORSDOF 3
ENDMDL
MODEL 3
REMARK VINA RESULT:      -6.9      2.023      3.085
REMARK  Name = min_compound939.pdb
REMARK  4 active torsions:
REMARK  status: ('A' for Active; 'I' for Inactive)
REMARK    1  A    between atoms: _14  and  _15
REMARK    2  A    between atoms: _15  and  _18
REMARK    3  A    between atoms: _18  and  _19
REMARK    4  A    between atoms: _19  and  _20
REMARK                            x       y       z     vdW  Elec       q    Type
REMARK                         _______ _______ _______ _____ _____    ______ ____
ROOT
ATOM      1  C   UNL     1     -10.258  -0.485 -15.979  0.00  0.00    +0.005 C 
ATOM      2  C   UNL     1     -11.679  -0.764 -16.370  0.00  0.00    +0.005 C 
ATOM      3  C   UNL     1     -11.769   0.290 -17.627  0.00  0.00    +0.037 C 
ATOM      4  C   UNL     1     -11.541   1.699 -17.171  0.00  0.00    -0.023 A 
ATOM      5  C   UNL     1     -12.051   2.912 -17.728  0.00  0.00    +0.075 A 
ATOM      6  C   UNL     1     -12.945   3.112 -18.850  0.00  0.00    +0.260 A 
ATOM      7  O   UNL     1     -13.453   2.212 -19.508  0.00  0.00    -0.267 OA
ATOM      8  N   UNL     1     -13.190   4.431 -19.132  0.00  0.00    -0.301 N 
ATOM      9  H   UNL     1     -13.787   4.613 -19.925  0.00  0.00    +0.171 HD
ATOM     10  C   UNL     1     -12.639   5.472 -18.408  0.00  0.00    +0.220 A 
ATOM     11  N   UNL     1     -11.854   5.336 -17.381  0.00  0.00    -0.216 NA
ATOM     12  C   UNL     1     -11.583   4.036 -17.071  0.00  0.00    +0.116 A 
ATOM     13  S   UNL     1     -10.558   3.614 -15.764  0.00  0.00    -0.073 S 
ATOM     14  C   UNL     1     -10.727   1.955 -16.089  0.00  0.00    -0.004 A 
ATOM     15  C   UNL     1     -10.083   0.882 -15.276  0.00  0.00    +0.043 C 
ENDROOT
BRANCH  10  16
ATOM     16  C   UNL     1     -13.021   6.837 -18.945  0.00  0.00    +0.375 C 
ATOM     17  O   UNL     1     -13.344   6.995 -20.108  0.00  0.00    -0.242 OA
BRANCH  16  18
ATOM     18  O   UNL     1     -13.139   7.706 -17.921  0.00  0.00    -0.459 OA
BRANCH  18  19
ATOM     19  C   UNL     1     -14.485   8.086 -17.598  0.00  0.00    +0.229 C 
ATOM     20  C   UNL     1     -14.873   7.605 -16.214  0.00  0.00    +0.048 C 
ENDBRANCH  18  19
ENDBRANCH  16  18
ENDBRANCH  10  16
TORSDOF 3
ENDMDL
MODEL 4
REMARK VINA RESULT:      -6.7      3.133      4.179
REMARK  Name = min_compound939.pdb
REMARK  4 active torsions:
REMARK  status: ('A' for Active; 'I' for Inactive)
REMARK    1  A    between atoms: _14  and  _15
REMARK    2  A    between atoms: _15  and  _18
REMARK    3  A    between atoms: _18  and  _19
REMARK    4  A    between atoms: _19  and  _20
REMARK                            x       y       z     vdW  Elec       q    Type
REMARK                         _______ _______ _______ _____ _____    ______ ____
ROOT
ATOM      1  C   UNL     1     -10.030  -0.690 -17.352  0.00  0.00    +0.005 C 
ATOM      2  C   UNL     1     -10.893  -1.050 -16.180  0.00  0.00    +0.005 C 
ATOM      3  C   UNL     1     -12.224  -0.193 -16.620  0.00  0.00    +0.037 C 
ATOM      4  C   UNL     1     -11.920   1.272 -16.711  0.00  0.00    -0.023 A 
ATOM      5  C   UNL     1     -12.797   2.380 -16.501  0.00  0.00    +0.075 A 
ATOM      6  C   UNL     1     -14.192   2.398 -16.115  0.00  0.00    +0.260 A 
ATOM      7  O   UNL     1     -14.861   1.402 -15.862  0.00  0.00    -0.267 OA
ATOM      8  N   UNL     1     -14.731   3.657 -16.048  0.00  0.00    -0.301 N 
ATOM      9  H   UNL     1     -15.710   3.710 -15.809  0.00  0.00    +0.171 HD
ATOM     10  C   UNL     1     -14.007   4.802 -16.320  0.00  0.00    +0.220 A 
ATOM     11  N   UNL     1     -12.749   4.832 -16.646  0.00  0.00    -0.216 NA
ATOM     12  C   UNL     1     -12.177   3.597 -16.726  0.00  0.00    +0.116 A 
ATOM     13  S   UNL     1     -10.531   3.390 -17.154  0.00  0.00    -0.073 S 
ATOM     14  C   UNL     1     -10.657   1.698 -17.057  0.00  0.00    -0.004 A 
ATOM     15  C   UNL     1      -9.515   0.768 -17.298  0.00  0.00    +0.043 C 
ENDROOT
BRANCH  10  16
ATOM     16  C   UNL     1     -14.838   6.067 -16.227  0.00  0.00    +0.375 C 
ATOM     17  O   UNL     1     -14.610   7.030 -16.935  0.00  0.00    -0.242 OA
BRANCH  16  18
ATOM     18  O   UNL     1     -15.911   5.843 -15.443  0.00  0.00    -0.459 OA
BRANCH  18  19
ATOM     19  C   UNL     1     -16.010   6.695 -14.292  0.00  0.00    +0.229 C 
ATOM     20  C   UNL     1     -15.587   5.966 -13.031  0.00  0.00    +0.048 C 
ENDBRANCH  18  19
ENDBRANCH  16  18
ENDBRANCH  10  16
TORSDOF 3
ENDMDL
MODEL 5
REMARK VINA RESULT:      -6.3      3.288      6.611
REMARK  Name = min_compound939.pdb
REMARK  4 active torsions:
REMARK  status: ('A' for Active; 'I' for Inactive)
REMARK    1  A    between atoms: _14  and  _15
REMARK    2  A    between atoms: _15  and  _18
REMARK    3  A    between atoms: _18  and  _19
REMARK    4  A    between atoms: _19  and  _20
REMARK                            x       y       z     vdW  Elec       q    Type
REMARK                         _______ _______ _______ _____ _____    ______ ____
ROOT
ATOM      1  C   UNL     1     -14.866   7.993 -16.810  0.00  0.00    +0.005 C 
ATOM      2  C   UNL     1     -16.102   7.159 -16.980  0.00  0.00    +0.005 C 
ATOM      3  C   UNL     1     -15.589   5.840 -16.147  0.00  0.00    +0.037 C 
ATOM      4  C   UNL     1     -14.371   5.238 -16.780  0.00  0.00    -0.023 A 
ATOM      5  C   UNL     1     -13.942   3.875 -16.773  0.00  0.00    +0.075 A 
ATOM      6  C   UNL     1     -14.572   2.708 -16.191  0.00  0.00    +0.260 A 
ATOM      7  O   UNL     1     -15.651   2.713 -15.610  0.00  0.00    -0.267 OA
ATOM      8  N   UNL     1     -13.846   1.555 -16.344  0.00  0.00    -0.301 N 
ATOM      9  H   UNL     1     -14.239   0.723 -15.927  0.00  0.00    +0.171 HD
ATOM     10  C   UNL     1     -12.629   1.511 -16.997  0.00  0.00    +0.220 A 
ATOM     11  N   UNL     1     -12.042   2.528 -17.553  0.00  0.00    -0.216 NA
ATOM     12  C   UNL     1     -12.731   3.697 -17.420  0.00  0.00    +0.116 A 
ATOM     13  S   UNL     1     -12.142   5.172 -18.061  0.00  0.00    -0.073 S 
ATOM     14  C   UNL     1     -13.479   6.035 -17.463  0.00  0.00    -0.004 A 
ATOM     15  C   UNL     1     -13.681   7.498 -17.673  0.00  0.00    +0.043 C 
ENDROOT
BRANCH  10  16
ATOM     16  C   UNL     1     -12.000   0.132 -16.991  0.00  0.00    +0.375 C 
ATOM     17  O   UNL     1     -12.552  -0.816 -16.462  0.00  0.00    -0.242 OA
BRANCH  16  18
ATOM     18  O   UNL     1     -10.926   0.124 -17.805  0.00  0.00    -0.459 OA
BRANCH  18  19
ATOM     19  C   UNL     1      -9.657   0.172 -17.137  0.00  0.00    +0.229 C 
ATOM     20  C   UNL     1      -9.646  -0.724 -15.914  0.00  0.00    +0.048 C 
ENDBRANCH  18  19
ENDBRANCH  16  18
ENDBRANCH  10  16
TORSDOF 3
ENDMDL
MODEL 6
REMARK VINA RESULT:      -6.2      3.220      6.493
REMARK  Name = min_compound939.pdb
REMARK  4 active torsions:
REMARK  status: ('A' for Active; 'I' for Inactive)
REMARK    1  A    between atoms: _14  and  _15
REMARK    2  A    between atoms: _15  and  _18
REMARK    3  A    between atoms: _18  and  _19
REMARK    4  A    between atoms: _19  and  _20
REMARK                            x       y       z     vdW  Elec       q    Type
REMARK                         _______ _______ _______ _____ _____    ______ ____
ROOT
ATOM      1  C   UNL     1     -16.015   7.672 -16.932  0.00  0.00    +0.005 C 
ATOM      2  C   UNL     1     -14.587   8.007 -16.614  0.00  0.00    +0.005 C 
ATOM      3  C   UNL     1     -13.885   6.795 -17.473  0.00  0.00    +0.037 C 
ATOM      4  C   UNL     1     -14.312   5.452 -16.965  0.00  0.00    -0.023 A 
ATOM      5  C   UNL     1     -13.593   4.217 -16.993  0.00  0.00    +0.075 A 
ATOM      6  C   UNL     1     -12.260   3.932 -17.481  0.00  0.00    +0.260 A 
ATOM      7  O   UNL     1     -11.490   4.767 -17.941  0.00  0.00    -0.267 OA
ATOM      8  N   UNL     1     -11.908   2.610 -17.386  0.00  0.00    -0.301 N 
ATOM      9  H   UNL     1     -10.996   2.365 -17.742  0.00  0.00    +0.171 HD
ATOM     10  C   UNL     1     -12.747   1.642 -16.867  0.00  0.00    +0.220 A 
ATOM     11  N   UNL     1     -13.939   1.859 -16.397  0.00  0.00    -0.216 NA
ATOM     12  C   UNL     1     -14.328   3.164 -16.477  0.00  0.00    +0.116 A 
ATOM     13  S   UNL     1     -15.866   3.683 -15.931  0.00  0.00    -0.073 S 
ATOM     14  C   UNL     1     -15.556   5.288 -16.397  0.00  0.00    -0.004 A 
ATOM     15  C   UNL     1     -16.518   6.410 -16.193  0.00  0.00    +0.043 C 
ENDROOT
BRANCH  10  16
ATOM     16  C   UNL     1     -12.150   0.249 -16.916  0.00  0.00    +0.375 C 
ATOM     17  O   UNL     1     -12.730  -0.707 -16.436  0.00  0.00    -0.242 OA
BRANCH  16  18
ATOM     18  O   UNL     1     -11.067   0.252 -17.718  0.00  0.00    -0.459 OA
BRANCH  18  19
ATOM     19  C   UNL     1     -10.128  -0.806 -17.476  0.00  0.00    +0.229 C 
ATOM     20  C   UNL     1      -9.491  -0.671 -16.106  0.00  0.00    +0.048 C 
ENDBRANCH  18  19
ENDBRANCH  16  18
ENDBRANCH  10  16
TORSDOF 3
ENDMDL
MODEL 7
REMARK VINA RESULT:      -6.2      1.804      2.715
REMARK  Name = min_compound939.pdb
REMARK  4 active torsions:
REMARK  status: ('A' for Active; 'I' for Inactive)
REMARK    1  A    between atoms: _14  and  _15
REMARK    2  A    between atoms: _15  and  _18
REMARK    3  A    between atoms: _18  and  _19
REMARK    4  A    between atoms: _19  and  _20
REMARK                            x       y       z     vdW  Elec       q    Type
REMARK                         _______ _______ _______ _____ _____    ______ ____
ROOT
ATOM      1  C   UNL     1     -10.813  -0.809 -15.990  0.00  0.00    +0.005 C 
ATOM      2  C   UNL     1      -9.696  -0.161 -16.753  0.00  0.00    +0.005 C 
ATOM      3  C   UNL     1      -9.910   1.368 -16.192  0.00  0.00    +0.037 C 
ATOM      4  C   UNL     1     -11.266   1.894 -16.554  0.00  0.00    -0.023 A 
ATOM      5  C   UNL     1     -11.667   3.246 -16.784  0.00  0.00    +0.075 A 
ATOM      6  C   UNL     1     -10.881   4.462 -16.764  0.00  0.00    +0.260 A 
ATOM      7  O   UNL     1      -9.672   4.510 -16.568  0.00  0.00    -0.267 OA
ATOM      8  N   UNL     1     -11.615   5.598 -16.991  0.00  0.00    -0.301 N 
ATOM      9  H   UNL     1     -11.108   6.470 -16.958  0.00  0.00    +0.171 HD
ATOM     10  C   UNL     1     -12.977   5.582 -17.221  0.00  0.00    +0.220 A 
ATOM     11  N   UNL     1     -13.715   4.513 -17.272  0.00  0.00    -0.216 NA
ATOM     12  C   UNL     1     -13.022   3.361 -17.047  0.00  0.00    +0.116 A 
ATOM     13  S   UNL     1     -13.789   1.829 -17.050  0.00  0.00    -0.073 S 
ATOM     14  C   UNL     1     -12.333   1.032 -16.685  0.00  0.00    -0.004 A 
ATOM     15  C   UNL     1     -12.212  -0.449 -16.544  0.00  0.00    +0.043 C 
ENDROOT
BRANCH  10  16
ATOM     16  C   UNL     1     -13.568   6.968 -17.394  0.00  0.00    +0.375 C 
ATOM     17  O   UNL     1     -13.015   7.814 -18.071  0.00  0.00    -0.242 OA
BRANCH  16  18
ATOM     18  O   UNL     1     -14.816   6.991 -16.885  0.00  0.00    -0.459 OA
BRANCH  18  19
ATOM     19  C   UNL     1     -15.021   7.934 -15.822  0.00  0.00    +0.229 C 
ATOM     20  C   UNL     1     -16.427   7.831 -15.262  0.00  0.00    +0.048 C 
ENDBRANCH  18  19
ENDBRANCH  16  18
ENDBRANCH  10  16
TORSDOF 3
ENDMDL
MODEL 8
REMARK VINA RESULT:      -6.2     11.263     12.158
REMARK  Name = min_compound939.pdb
REMARK  4 active torsions:
REMARK  status: ('A' for Active; 'I' for Inactive)
REMARK    1  A    between atoms: _14  and  _15
REMARK    2  A    between atoms: _15  and  _18
REMARK    3  A    between atoms: _18  and  _19
REMARK    4  A    between atoms: _19  and  _20
REMARK                            x       y       z     vdW  Elec       q    Type
REMARK                         _______ _______ _______ _____ _____    ______ ____
ROOT
ATOM      1  C   UNL     1     -13.813   0.401  -3.453  0.00  0.00    +0.005 C 
ATOM      2  C   UNL     1     -13.593   1.884  -3.492  0.00  0.00    +0.005 C 
ATOM      3  C   UNL     1     -15.118   2.316  -3.927  0.00  0.00    +0.037 C 
ATOM      4  C   UNL     1     -15.490   1.732  -5.256  0.00  0.00    -0.023 A 
ATOM      5  C   UNL     1     -16.393   2.247  -6.236  0.00  0.00    +0.075 A 
ATOM      6  C   UNL     1     -17.162   3.474  -6.235  0.00  0.00    +0.260 A 
ATOM      7  O   UNL     1     -17.124   4.322  -5.350  0.00  0.00    -0.267 OA
ATOM      8  N   UNL     1     -17.965   3.624  -7.336  0.00  0.00    -0.301 N 
ATOM      9  H   UNL     1     -18.538   4.455  -7.359  0.00  0.00    +0.171 HD
ATOM     10  C   UNL     1     -18.029   2.693  -8.354  0.00  0.00    +0.220 A 
ATOM     11  N   UNL     1     -17.339   1.592  -8.407  0.00  0.00    -0.216 NA
ATOM     12  C   UNL     1     -16.529   1.404  -7.326  0.00  0.00    +0.116 A 
ATOM     13  S   UNL     1     -15.538   0.016  -7.170  0.00  0.00    -0.073 S 
ATOM     14  C   UNL     1     -14.953   0.529  -5.660  0.00  0.00    -0.004 A 
ATOM     15  C   UNL     1     -13.944  -0.227  -4.861  0.00  0.00    +0.043 C 
ENDROOT
BRANCH  10  16
ATOM     16  C   UNL     1     -19.026   3.061  -9.436  0.00  0.00    +0.375 C 
ATOM     17  O   UNL     1     -20.166   2.635  -9.421  0.00  0.00    -0.242 OA
BRANCH  16  18
ATOM     18  O   UNL     1     -18.510   4.038 -10.208  0.00  0.00    -0.459 OA
BRANCH  18  19
ATOM     19  C   UNL     1     -18.510   3.762 -11.617  0.00  0.00    +0.229 C 
ATOM     20  C   UNL     1     -17.245   3.038 -12.034  0.00  0.00    +0.048 C 
ENDBRANCH  18  19
ENDBRANCH  16  18
ENDBRANCH  10  16
TORSDOF 3
ENDMDL
MODEL 9
REMARK VINA RESULT:      -5.8      2.883      3.868
REMARK  Name = min_compound939.pdb
REMARK  4 active torsions:
REMARK  status: ('A' for Active; 'I' for Inactive)
REMARK    1  A    between atoms: _14  and  _15
REMARK    2  A    between atoms: _15  and  _18
REMARK    3  A    between atoms: _18  and  _19
REMARK    4  A    between atoms: _19  and  _20
REMARK                            x       y       z     vdW  Elec       q    Type
REMARK                         _______ _______ _______ _____ _____    ______ ____
ROOT
ATOM      1  C   UNL     1      -9.805  -0.614 -16.405  0.00  0.00    +0.005 C 
ATOM      2  C   UNL     1      -9.324   0.291 -17.499  0.00  0.00    +0.005 C 
ATOM      3  C   UNL     1      -9.898   1.701 -16.881  0.00  0.00    +0.037 C 
ATOM      4  C   UNL     1     -11.390   1.667 -16.746  0.00  0.00    -0.023 A 
ATOM      5  C   UNL     1     -12.317   2.753 -16.807  0.00  0.00    +0.075 A 
ATOM      6  C   UNL     1     -12.080   4.161 -17.047  0.00  0.00    +0.260 A 
ATOM      7  O   UNL     1     -10.983   4.656 -17.280  0.00  0.00    -0.267 OA
ATOM      8  N   UNL     1     -13.215   4.929 -16.993  0.00  0.00    -0.301 N 
ATOM      9  H   UNL     1     -13.088   5.921 -17.127  0.00  0.00    +0.171 HD
ATOM     10  C   UNL     1     -14.468   4.405 -16.739  0.00  0.00    +0.220 A 
ATOM     11  N   UNL     1     -14.727   3.146 -16.543  0.00  0.00    -0.216 NA
ATOM     12  C   UNL     1     -13.622   2.349 -16.585  0.00  0.00    +0.116 A 
ATOM     13  S   UNL     1     -13.719   0.656 -16.340  0.00  0.00    -0.073 S 
ATOM     14  C   UNL     1     -12.038   0.475 -16.510  0.00  0.00    -0.004 A 
ATOM     15  C   UNL     1     -11.335  -0.840 -16.436  0.00  0.00    +0.043 C 
ENDROOT
BRANCH  10  16
ATOM     16  C   UNL     1     -15.554   5.461 -16.681  0.00  0.00    +0.375 C 
ATOM     17  O   UNL     1     -15.824   6.148 -17.648  0.00  0.00    -0.242 OA
BRANCH  16  18
ATOM     18  O   UNL     1     -16.241   5.337 -15.527  0.00  0.00    -0.459 OA
BRANCH  18  19
ATOM     19  C   UNL     1     -15.671   6.025 -14.404  0.00  0.00    +0.229 C 
ATOM     20  C   UNL     1     -16.080   5.374 -13.097  0.00  0.00    +0.048 C 
ENDBRANCH  18  19
ENDBRANCH  16  18
ENDBRANCH  10  16
TORSDOF 3
ENDMDL
