MODEL 1
REMARK VINA RESULT:      -7.6      0.000      0.000
REMARK  Name = min_compound999.pdb
REMARK  4 active torsions:
REMARK  status: ('A' for Active; 'I' for Inactive)
REMARK    1  A    between atoms: _8  and  _21
REMARK    2  A    between atoms: _11  and  _12
REMARK    3  A    between atoms: _11  and  _18
REMARK    4  A    between atoms: _15  and  _22
REMARK                            x       y       z     vdW  Elec       q    Type
REMARK                         _______ _______ _______ _____ _____    ______ ____
ROOT
ATOM      1  C   UNL     1      -9.828  -1.060 -17.167  0.00  0.00    +0.002 A 
ATOM      2  C   UNL     1     -10.711  -0.344 -17.980  0.00  0.00    +0.030 A 
ATOM      3  C   UNL     1     -11.360   0.795 -17.518  0.00  0.00    +0.091 A 
ATOM      4  N   UNL     1     -12.212   1.456 -18.325  0.00  0.00    -0.227 NA
ATOM      5  C   UNL     1     -12.829   2.547 -17.820  0.00  0.00    +0.160 A 
ATOM      6  N   UNL     1     -13.652   3.109 -18.840  0.00  0.00    -0.198 N 
ATOM      7  H   UNL     1     -14.087   2.320 -19.321  0.00  0.00    +0.175 HD
ATOM      8  C   UNL     1     -12.566   3.003 -16.521  0.00  0.00    +0.080 A 
ATOM      9  C   UNL     1     -13.205   4.189 -15.869  0.00  0.00    +0.069 C 
ATOM     10  N   UNL     1     -11.698   2.336 -15.712  0.00  0.00    -0.247 NA
ATOM     11  C   UNL     1     -11.104   1.234 -16.200  0.00  0.00    +0.090 A 
ATOM     12  C   UNL     1     -10.228   0.516 -15.397  0.00  0.00    +0.030 A 
ATOM     13  C   UNL     1      -9.588  -0.629 -15.870  0.00  0.00    +0.002 A 
ENDROOT
BRANCH   6  14
ATOM     14  S   UNL     1     -14.580   4.257 -18.576  0.00  0.00    +0.074 S 
ATOM     15  O   UNL     1     -15.508   5.405 -18.312  0.00  0.00    -0.150 OA
ATOM     16  O   UNL     1     -15.367   3.655 -19.682  0.00  0.00    -0.150 OA
BRANCH  14  17
ATOM     17  C   UNL     1     -13.372   5.383 -19.454  0.00  0.00    +0.109 A 
ATOM     18  C   UNL     1     -12.700   6.382 -18.746  0.00  0.00    +0.030 A 
ATOM     19  C   UNL     1     -11.786   7.190 -19.430  0.00  0.00    +0.024 A 
ATOM     20  C   UNL     1     -11.537   7.002 -20.797  0.00  0.00    +0.025 A 
ATOM     21  C   UNL     1     -12.283   6.050 -21.497  0.00  0.00    +0.024 A 
ATOM     22  C   UNL     1     -13.175   5.211 -20.829  0.00  0.00    +0.030 A 
BRANCH  20  23
ATOM     23  N   UNL     1     -10.726   7.905 -21.494  0.00  0.00    -0.358 N 
ATOM     24  H   UNL     1     -10.388   8.677 -20.927  0.00  0.00    +0.142 HD
ATOM     25  H   UNL     1      -9.982   7.464 -22.025  0.00  0.00    +0.142 HD
ENDBRANCH  20  23
ENDBRANCH  14  17
ENDBRANCH   6  14
TORSDOF 3
ENDMDL
MODEL 2
REMARK VINA RESULT:      -7.4      1.594      2.030
REMARK  Name = min_compound999.pdb
REMARK  4 active torsions:
REMARK  status: ('A' for Active; 'I' for Inactive)
REMARK    1  A    between atoms: _8  and  _21
REMARK    2  A    between atoms: _11  and  _12
REMARK    3  A    between atoms: _11  and  _18
REMARK    4  A    between atoms: _15  and  _22
REMARK                            x       y       z     vdW  Elec       q    Type
REMARK                         _______ _______ _______ _____ _____    ______ ____
ROOT
ATOM      1  C   UNL     1     -11.516  -1.082 -16.239  0.00  0.00    +0.002 A 
ATOM      2  C   UNL     1     -12.354  -0.079 -16.735  0.00  0.00    +0.030 A 
ATOM      3  C   UNL     1     -11.968   1.256 -16.727  0.00  0.00    +0.091 A 
ATOM      4  N   UNL     1     -12.805   2.199 -17.204  0.00  0.00    -0.227 NA
ATOM      5  C   UNL     1     -12.387   3.483 -17.157  0.00  0.00    +0.160 A 
ATOM      6  N   UNL     1     -13.400   4.304 -17.736  0.00  0.00    -0.198 N 
ATOM      7  H   UNL     1     -14.291   3.932 -17.406  0.00  0.00    +0.175 HD
ATOM      8  C   UNL     1     -11.117   3.825 -16.672  0.00  0.00    +0.080 A 
ATOM      9  C   UNL     1     -10.570   5.214 -16.569  0.00  0.00    +0.069 C 
ATOM     10  N   UNL     1     -10.273   2.868 -16.199  0.00  0.00    -0.247 NA
ATOM     11  C   UNL     1     -10.695   1.593 -16.216  0.00  0.00    +0.090 A 
ATOM     12  C   UNL     1      -9.869   0.591 -15.723  0.00  0.00    +0.030 A 
ATOM     13  C   UNL     1     -10.269  -0.745 -15.730  0.00  0.00    +0.002 A 
ENDROOT
BRANCH   6  14
ATOM     14  S   UNL     1     -13.316   5.802 -17.727  0.00  0.00    +0.074 S 
ATOM     15  O   UNL     1     -13.232   7.299 -17.717  0.00  0.00    -0.150 OA
ATOM     16  O   UNL     1     -14.797   5.716 -17.772  0.00  0.00    -0.150 OA
BRANCH  14  17
ATOM     17  C   UNL     1     -12.814   5.745 -19.527  0.00  0.00    +0.109 A 
ATOM     18  C   UNL     1     -13.454   4.870 -20.409  0.00  0.00    +0.030 A 
ATOM     19  C   UNL     1     -13.070   4.871 -21.753  0.00  0.00    +0.024 A 
ATOM     20  C   UNL     1     -12.068   5.736 -22.218  0.00  0.00    +0.025 A 
ATOM     21  C   UNL     1     -11.388   6.541 -21.299  0.00  0.00    +0.024 A 
ATOM     22  C   UNL     1     -11.778   6.580 -19.960  0.00  0.00    +0.030 A 
BRANCH  20  23
ATOM     23  N   UNL     1     -11.600   5.627 -23.532  0.00  0.00    -0.358 N 
ATOM     24  H   UNL     1     -12.245   5.160 -24.161  0.00  0.00    +0.142 HD
ATOM     25  H   UNL     1     -11.252   6.500 -23.917  0.00  0.00    +0.142 HD
ENDBRANCH  20  23
ENDBRANCH  14  17
ENDBRANCH   6  14
TORSDOF 3
ENDMDL
MODEL 3
REMARK VINA RESULT:      -7.4      2.814      4.153
REMARK  Name = min_compound999.pdb
REMARK  4 active torsions:
REMARK  status: ('A' for Active; 'I' for Inactive)
REMARK    1  A    between atoms: _8  and  _21
REMARK    2  A    between atoms: _11  and  _12
REMARK    3  A    between atoms: _11  and  _18
REMARK    4  A    between atoms: _15  and  _22
REMARK                            x       y       z     vdW  Elec       q    Type
REMARK                         _______ _______ _______ _____ _____    ______ ____
ROOT
ATOM      1  C   UNL     1     -10.014   0.164 -15.497  0.00  0.00    +0.002 A 
ATOM      2  C   UNL     1     -10.300   1.530 -15.558  0.00  0.00    +0.030 A 
ATOM      3  C   UNL     1     -11.127   2.054 -16.544  0.00  0.00    +0.091 A 
ATOM      4  N   UNL     1     -11.373   3.379 -16.579  0.00  0.00    -0.227 NA
ATOM      5  C   UNL     1     -12.170   3.838 -17.569  0.00  0.00    +0.160 A 
ATOM      6  N   UNL     1     -12.326   5.246 -17.401  0.00  0.00    -0.198 N 
ATOM      7  H   UNL     1     -11.408   5.603 -17.130  0.00  0.00    +0.175 HD
ATOM      8  C   UNL     1     -12.755   2.971 -18.502  0.00  0.00    +0.080 A 
ATOM      9  C   UNL     1     -13.638   3.383 -19.638  0.00  0.00    +0.069 C 
ATOM     10  N   UNL     1     -12.508   1.634 -18.458  0.00  0.00    -0.247 NA
ATOM     11  C   UNL     1     -11.693   1.176 -17.493  0.00  0.00    +0.090 A 
ATOM     12  C   UNL     1     -11.403  -0.181 -17.429  0.00  0.00    +0.030 A 
ATOM     13  C   UNL     1     -10.567  -0.695 -16.438  0.00  0.00    +0.002 A 
ENDROOT
BRANCH   6  14
ATOM     14  S   UNL     1     -13.045   6.096 -18.406  0.00  0.00    +0.074 S 
ATOM     15  O   UNL     1     -13.764   6.945 -19.412  0.00  0.00    -0.150 OA
ATOM     16  O   UNL     1     -11.867   6.985 -18.247  0.00  0.00    -0.150 OA
BRANCH  14  17
ATOM     17  C   UNL     1     -14.205   6.650 -17.048  0.00  0.00    +0.109 A 
ATOM     18  C   UNL     1     -14.819   5.708 -16.219  0.00  0.00    +0.030 A 
ATOM     19  C   UNL     1     -15.662   6.159 -15.199  0.00  0.00    +0.024 A 
ATOM     20  C   UNL     1     -15.884   7.529 -14.998  0.00  0.00    +0.025 A 
ATOM     21  C   UNL     1     -15.322   8.445 -15.893  0.00  0.00    +0.024 A 
ATOM     22  C   UNL     1     -14.452   8.019 -16.896  0.00  0.00    +0.030 A 
BRANCH  20  23
ATOM     23  N   UNL     1     -16.835   7.957 -14.065  0.00  0.00    -0.358 N 
ATOM     24  H   UNL     1     -17.551   8.562 -14.454  0.00  0.00    +0.142 HD
ATOM     25  H   UNL     1     -17.230   7.205 -13.508  0.00  0.00    +0.142 HD
ENDBRANCH  20  23
ENDBRANCH  14  17
ENDBRANCH   6  14
TORSDOF 3
ENDMDL
MODEL 4
REMARK VINA RESULT:      -7.3      2.822      5.066
REMARK  Name = min_compound999.pdb
REMARK  4 active torsions:
REMARK  status: ('A' for Active; 'I' for Inactive)
REMARK    1  A    between atoms: _8  and  _21
REMARK    2  A    between atoms: _11  and  _12
REMARK    3  A    between atoms: _11  and  _18
REMARK    4  A    between atoms: _15  and  _22
REMARK                            x       y       z     vdW  Elec       q    Type
REMARK                         _______ _______ _______ _____ _____    ______ ____
ROOT
ATOM      1  C   UNL     1      -9.589  -0.529 -15.816  0.00  0.00    +0.002 A 
ATOM      2  C   UNL     1     -10.347   0.566 -15.392  0.00  0.00    +0.030 A 
ATOM      3  C   UNL     1     -11.260   1.185 -16.237  0.00  0.00    +0.091 A 
ATOM      4  N   UNL     1     -11.968   2.245 -15.798  0.00  0.00    -0.227 NA
ATOM      5  C   UNL     1     -12.830   2.819 -16.666  0.00  0.00    +0.160 A 
ATOM      6  N   UNL     1     -13.493   3.890 -15.995  0.00  0.00    -0.198 N 
ATOM      7  H   UNL     1     -12.781   4.356 -15.431  0.00  0.00    +0.175 HD
ATOM      8  C   UNL     1     -13.016   2.313 -17.960  0.00  0.00    +0.080 A 
ATOM      9  C   UNL     1     -13.935   2.885 -18.994  0.00  0.00    +0.069 C 
ATOM     10  N   UNL     1     -12.305   1.238 -18.395  0.00  0.00    -0.247 NA
ATOM     11  C   UNL     1     -11.425   0.681 -17.546  0.00  0.00    +0.090 A 
ATOM     12  C   UNL     1     -10.667  -0.406 -17.961  0.00  0.00    +0.030 A 
ATOM     13  C   UNL     1      -9.748  -1.015 -17.106  0.00  0.00    +0.002 A 
ENDROOT
BRANCH   6  14
ATOM     14  S   UNL     1     -14.423   4.825 -16.709  0.00  0.00    +0.074 S 
ATOM     15  O   UNL     1     -15.353   5.761 -17.422  0.00  0.00    -0.150 OA
ATOM     16  O   UNL     1     -13.221   5.693 -16.784  0.00  0.00    -0.150 OA
BRANCH  14  17
ATOM     17  C   UNL     1     -15.183   5.265 -15.057  0.00  0.00    +0.109 A 
ATOM     18  C   UNL     1     -15.991   6.398 -14.933  0.00  0.00    +0.030 A 
ATOM     19  C   UNL     1     -16.562   6.683 -13.690  0.00  0.00    +0.024 A 
ATOM     20  C   UNL     1     -16.341   5.848 -12.584  0.00  0.00    +0.025 A 
ATOM     21  C   UNL     1     -15.463   4.768 -12.716  0.00  0.00    +0.024 A 
ATOM     22  C   UNL     1     -14.910   4.446 -13.956  0.00  0.00    +0.030 A 
BRANCH  20  23
ATOM     23  N   UNL     1     -16.804   6.222 -11.318  0.00  0.00    -0.358 N 
ATOM     24  H   UNL     1     -16.507   5.602 -10.571  0.00  0.00    +0.142 HD
ATOM     25  H   UNL     1     -16.642   7.199 -11.094  0.00  0.00    +0.142 HD
ENDBRANCH  20  23
ENDBRANCH  14  17
ENDBRANCH   6  14
TORSDOF 3
ENDMDL
MODEL 5
REMARK VINA RESULT:      -7.1      2.070      6.511
REMARK  Name = min_compound999.pdb
REMARK  4 active torsions:
REMARK  status: ('A' for Active; 'I' for Inactive)
REMARK    1  A    between atoms: _8  and  _21
REMARK    2  A    between atoms: _11  and  _12
REMARK    3  A    between atoms: _11  and  _18
REMARK    4  A    between atoms: _15  and  _22
REMARK                            x       y       z     vdW  Elec       q    Type
REMARK                         _______ _______ _______ _____ _____    ______ ____
ROOT
ATOM      1  C   UNL     1     -11.089   7.714 -21.575  0.00  0.00    +0.002 A 
ATOM      2  C   UNL     1     -11.195   7.174 -20.290  0.00  0.00    +0.030 A 
ATOM      3  C   UNL     1     -12.071   6.131 -20.014  0.00  0.00    +0.091 A 
ATOM      4  N   UNL     1     -12.156   5.640 -18.761  0.00  0.00    -0.227 NA
ATOM      5  C   UNL     1     -13.035   4.638 -18.544  0.00  0.00    +0.160 A 
ATOM      6  N   UNL     1     -12.940   4.249 -17.174  0.00  0.00    -0.198 N 
ATOM      7  H   UNL     1     -12.843   5.113 -16.640  0.00  0.00    +0.175 HD
ATOM      8  C   UNL     1     -13.804   4.096 -19.584  0.00  0.00    +0.080 A 
ATOM      9  C   UNL     1     -14.810   2.998 -19.441  0.00  0.00    +0.069 C 
ATOM     10  N   UNL     1     -13.709   4.591 -20.848  0.00  0.00    -0.247 NA
ATOM     11  C   UNL     1     -12.857   5.607 -21.064  0.00  0.00    +0.090 A 
ATOM     12  C   UNL     1     -12.748   6.150 -22.337  0.00  0.00    +0.030 A 
ATOM     13  C   UNL     1     -11.870   7.201 -22.601  0.00  0.00    +0.002 A 
ENDROOT
BRANCH   6  14
ATOM     14  S   UNL     1     -13.874   3.247 -16.562  0.00  0.00    +0.074 S 
ATOM     15  O   UNL     1     -14.808   2.245 -15.950  0.00  0.00    -0.150 OA
ATOM     16  O   UNL     1     -13.709   4.087 -15.349  0.00  0.00    -0.150 OA
BRANCH  14  17
ATOM     17  C   UNL     1     -12.448   2.040 -16.462  0.00  0.00    +0.109 A 
ATOM     18  C   UNL     1     -11.377   2.287 -15.599  0.00  0.00    +0.030 A 
ATOM     19  C   UNL     1     -10.340   1.352 -15.532  0.00  0.00    +0.024 A 
ATOM     20  C   UNL     1     -10.371   0.182 -16.306  0.00  0.00    +0.025 A 
ATOM     21  C   UNL     1     -11.413   0.001 -17.220  0.00  0.00    +0.024 A 
ATOM     22  C   UNL     1     -12.474   0.905 -17.278  0.00  0.00    +0.030 A 
BRANCH  20  23
ATOM     23  N   UNL     1      -9.263  -0.673 -16.331  0.00  0.00    -0.358 N 
ATOM     24  H   UNL     1      -8.725  -0.674 -15.470  0.00  0.00    +0.142 HD
ATOM     25  H   UNL     1      -9.477  -1.612 -16.651  0.00  0.00    +0.142 HD
ENDBRANCH  20  23
ENDBRANCH  14  17
ENDBRANCH   6  14
TORSDOF 3
ENDMDL
MODEL 6
REMARK VINA RESULT:      -7.1      3.440      6.903
REMARK  Name = min_compound999.pdb
REMARK  4 active torsions:
REMARK  status: ('A' for Active; 'I' for Inactive)
REMARK    1  A    between atoms: _8  and  _21
REMARK    2  A    between atoms: _11  and  _12
REMARK    3  A    between atoms: _11  and  _18
REMARK    4  A    between atoms: _15  and  _22
REMARK                            x       y       z     vdW  Elec       q    Type
REMARK                         _______ _______ _______ _____ _____    ______ ____
ROOT
ATOM      1  C   UNL     1     -16.819   5.146 -11.153  0.00  0.00    +0.002 A 
ATOM      2  C   UNL     1     -16.030   4.319 -11.956  0.00  0.00    +0.030 A 
ATOM      3  C   UNL     1     -15.622   4.717 -13.224  0.00  0.00    +0.091 A 
ATOM      4  N   UNL     1     -14.870   3.890 -13.977  0.00  0.00    -0.227 NA
ATOM      5  C   UNL     1     -14.515   4.319 -15.208  0.00  0.00    +0.160 A 
ATOM      6  N   UNL     1     -13.702   3.316 -15.815  0.00  0.00    -0.198 N 
ATOM      7  H   UNL     1     -14.126   2.421 -15.571  0.00  0.00    +0.175 HD
ATOM      8  C   UNL     1     -14.877   5.590 -15.675  0.00  0.00    +0.080 A 
ATOM      9  C   UNL     1     -14.545   6.149 -17.023  0.00  0.00    +0.069 C 
ATOM     10  N   UNL     1     -15.631   6.424 -14.908  0.00  0.00    -0.247 NA
ATOM     11  C   UNL     1     -16.010   5.991 -13.695  0.00  0.00    +0.090 A 
ATOM     12  C   UNL     1     -16.797   6.806 -12.891  0.00  0.00    +0.030 A 
ATOM     13  C   UNL     1     -17.205   6.394 -11.623  0.00  0.00    +0.002 A 
ENDROOT
BRANCH   6  14
ATOM     14  S   UNL     1     -13.244   3.413 -17.240  0.00  0.00    +0.074 S 
ATOM     15  O   UNL     1     -12.786   3.510 -18.665  0.00  0.00    -0.150 OA
ATOM     16  O   UNL     1     -14.501   2.674 -17.517  0.00  0.00    -0.150 OA
BRANCH  14  17
ATOM     17  C   UNL     1     -12.002   2.059 -16.890  0.00  0.00    +0.109 A 
ATOM     18  C   UNL     1     -11.894   0.963 -17.750  0.00  0.00    +0.030 A 
ATOM     19  C   UNL     1     -10.939  -0.018 -17.471  0.00  0.00    +0.024 A 
ATOM     20  C   UNL     1     -10.094   0.092 -16.357  0.00  0.00    +0.025 A 
ATOM     21  C   UNL     1     -10.279   1.156 -15.469  0.00  0.00    +0.024 A 
ATOM     22  C   UNL     1     -11.203   2.163 -15.746  0.00  0.00    +0.030 A 
BRANCH  20  23
ATOM     23  N   UNL     1      -9.241  -0.964 -16.015  0.00  0.00    -0.358 N 
ATOM     24  H   UNL     1      -8.505  -1.134 -16.693  0.00  0.00    +0.142 HD
ATOM     25  H   UNL     1      -8.885  -0.913 -15.066  0.00  0.00    +0.142 HD
ENDBRANCH  20  23
ENDBRANCH  14  17
ENDBRANCH   6  14
TORSDOF 3
ENDMDL
MODEL 7
REMARK VINA RESULT:      -7.0      8.928     10.647
REMARK  Name = min_compound999.pdb
REMARK  4 active torsions:
REMARK  status: ('A' for Active; 'I' for Inactive)
REMARK    1  A    between atoms: _8  and  _21
REMARK    2  A    between atoms: _11  and  _12
REMARK    3  A    between atoms: _11  and  _18
REMARK    4  A    between atoms: _15  and  _22
REMARK                            x       y       z     vdW  Elec       q    Type
REMARK                         _______ _______ _______ _____ _____    ______ ____
ROOT
ATOM      1  C   UNL     1     -13.819  -0.274  -4.860  0.00  0.00    +0.002 A 
ATOM      2  C   UNL     1     -14.192   0.155  -6.136  0.00  0.00    +0.030 A 
ATOM      3  C   UNL     1     -15.146   1.149  -6.315  0.00  0.00    +0.091 A 
ATOM      4  N   UNL     1     -15.489   1.532  -7.561  0.00  0.00    -0.227 NA
ATOM      5  C   UNL     1     -16.434   2.491  -7.679  0.00  0.00    +0.160 A 
ATOM      6  N   UNL     1     -16.620   2.768  -9.066  0.00  0.00    -0.198 N 
ATOM      7  H   UNL     1     -16.593   1.865  -9.542  0.00  0.00    +0.175 HD
ATOM      8  C   UNL     1     -17.009   3.098  -6.553  0.00  0.00    +0.080 A 
ATOM      9  C   UNL     1     -18.068   4.155  -6.580  0.00  0.00    +0.069 C 
ATOM     10  N   UNL     1     -16.653   2.712  -5.298  0.00  0.00    -0.247 NA
ATOM     11  C   UNL     1     -15.736   1.739  -5.175  0.00  0.00    +0.090 A 
ATOM     12  C   UNL     1     -15.362   1.305  -3.910  0.00  0.00    +0.030 A 
ATOM     13  C   UNL     1     -14.407   0.302  -3.742  0.00  0.00    +0.002 A 
ENDROOT
BRANCH   6  14
ATOM     14  S   UNL     1     -17.694   3.692  -9.559  0.00  0.00    +0.074 S 
ATOM     15  O   UNL     1     -18.768   4.616 -10.052  0.00  0.00    -0.150 OA
ATOM     16  O   UNL     1     -18.486   2.441  -9.666  0.00  0.00    -0.150 OA
BRANCH  14  17
ATOM     17  C   UNL     1     -16.799   3.792 -11.198  0.00  0.00    +0.109 A 
ATOM     18  C   UNL     1     -17.266   3.071 -12.300  0.00  0.00    +0.030 A 
ATOM     19  C   UNL     1     -16.587   3.188 -13.516  0.00  0.00    +0.024 A 
ATOM     20  C   UNL     1     -15.462   4.017 -13.639  0.00  0.00    +0.025 A 
ATOM     21  C   UNL     1     -14.968   4.661 -12.501  0.00  0.00    +0.024 A 
ATOM     22  C   UNL     1     -15.650   4.585 -11.286  0.00  0.00    +0.030 A 
BRANCH  20  23
ATOM     23  N   UNL     1     -14.714   4.014 -14.821  0.00  0.00    -0.358 N 
ATOM     24  H   UNL     1     -13.775   4.387 -14.716  0.00  0.00    +0.142 HD
ATOM     25  H   UNL     1     -14.721   3.124 -15.309  0.00  0.00    +0.142 HD
ENDBRANCH  20  23
ENDBRANCH  14  17
ENDBRANCH   6  14
TORSDOF 3
ENDMDL
MODEL 8
REMARK VINA RESULT:      -6.9      4.092      6.536
REMARK  Name = min_compound999.pdb
REMARK  4 active torsions:
REMARK  status: ('A' for Active; 'I' for Inactive)
REMARK    1  A    between atoms: _8  and  _21
REMARK    2  A    between atoms: _11  and  _12
REMARK    3  A    between atoms: _11  and  _18
REMARK    4  A    between atoms: _15  and  _22
REMARK                            x       y       z     vdW  Elec       q    Type
REMARK                         _______ _______ _______ _____ _____    ______ ____
ROOT
ATOM      1  C   UNL     1     -10.249   1.330 -16.312  0.00  0.00    +0.002 A 
ATOM      2  C   UNL     1     -11.037   2.155 -15.505  0.00  0.00    +0.030 A 
ATOM      3  C   UNL     1     -12.297   2.577 -15.913  0.00  0.00    +0.091 A 
ATOM      4  N   UNL     1     -13.027   3.380 -15.113  0.00  0.00    -0.227 NA
ATOM      5  C   UNL     1     -14.238   3.774 -15.565  0.00  0.00    +0.160 A 
ATOM      6  N   UNL     1     -14.849   4.581 -14.560  0.00  0.00    -0.198 N 
ATOM      7  H   UNL     1     -14.109   5.172 -14.181  0.00  0.00    +0.175 HD
ATOM      8  C   UNL     1     -14.739   3.336 -16.799  0.00  0.00    +0.080 A 
ATOM      9  C   UNL     1     -16.058   3.726 -17.390  0.00  0.00    +0.069 C 
ATOM     10  N   UNL     1     -14.001   2.520 -17.599  0.00  0.00    -0.247 NA
ATOM     11  C   UNL     1     -12.785   2.148 -17.167  0.00  0.00    +0.090 A 
ATOM     12  C   UNL     1     -11.995   1.331 -17.965  0.00  0.00    +0.030 A 
ATOM     13  C   UNL     1     -10.729   0.918 -17.548  0.00  0.00    +0.002 A 
ENDROOT
BRANCH   6  14
ATOM     14  S   UNL     1     -16.149   5.293 -14.789  0.00  0.00    +0.074 S 
ATOM     15  O   UNL     1     -17.449   6.006 -15.019  0.00  0.00    -0.150 OA
ATOM     16  O   UNL     1     -15.268   6.414 -15.203  0.00  0.00    -0.150 OA
BRANCH  14  17
ATOM     17  C   UNL     1     -16.308   5.515 -12.939  0.00  0.00    +0.109 A 
ATOM     18  C   UNL     1     -17.288   6.360 -12.413  0.00  0.00    +0.030 A 
ATOM     19  C   UNL     1     -17.393   6.484 -11.024  0.00  0.00    +0.024 A 
ATOM     20  C   UNL     1     -16.542   5.769 -10.169  0.00  0.00    +0.025 A 
ATOM     21  C   UNL     1     -15.518   4.995 -10.723  0.00  0.00    +0.024 A 
ATOM     22  C   UNL     1     -15.417   4.831 -12.105  0.00  0.00    +0.030 A 
BRANCH  20  23
ATOM     23  N   UNL     1     -16.569   6.009  -8.790  0.00  0.00    -0.358 N 
ATOM     24  H   UNL     1     -17.090   5.317  -8.262  0.00  0.00    +0.142 HD
ATOM     25  H   UNL     1     -15.655   6.192  -8.388  0.00  0.00    +0.142 HD
ENDBRANCH  20  23
ENDBRANCH  14  17
ENDBRANCH   6  14
TORSDOF 3
ENDMDL
MODEL 9
REMARK VINA RESULT:      -6.8      4.569      7.387
REMARK  Name = min_compound999.pdb
REMARK  4 active torsions:
REMARK  status: ('A' for Active; 'I' for Inactive)
REMARK    1  A    between atoms: _8  and  _21
REMARK    2  A    between atoms: _11  and  _12
REMARK    3  A    between atoms: _11  and  _18
REMARK    4  A    between atoms: _15  and  _22
REMARK                            x       y       z     vdW  Elec       q    Type
REMARK                         _______ _______ _______ _____ _____    ______ ____
ROOT
ATOM      1  C   UNL     1     -16.753   4.728  -8.916  0.00  0.00    +0.002 A 
ATOM      2  C   UNL     1     -16.084   4.138  -9.992  0.00  0.00    +0.030 A 
ATOM      3  C   UNL     1     -15.975   4.782 -11.218  0.00  0.00    +0.091 A 
ATOM      4  N   UNL     1     -15.331   4.180 -12.237  0.00  0.00    -0.227 NA
ATOM      5  C   UNL     1     -15.268   4.843 -13.413  0.00  0.00    +0.160 A 
ATOM      6  N   UNL     1     -14.522   4.050 -14.335  0.00  0.00    -0.198 N 
ATOM      7  H   UNL     1     -14.819   3.085 -14.185  0.00  0.00    +0.175 HD
ATOM      8  C   UNL     1     -15.813   6.126 -13.562  0.00  0.00    +0.080 A 
ATOM      9  C   UNL     1     -15.806   6.934 -14.822  0.00  0.00    +0.069 C 
ATOM     10  N   UNL     1     -16.456   6.732 -12.527  0.00  0.00    -0.247 NA
ATOM     11  C   UNL     1     -16.546   6.065 -11.365  0.00  0.00    +0.090 A 
ATOM     12  C   UNL     1     -17.212   6.644 -10.293  0.00  0.00    +0.030 A 
ATOM     13  C   UNL     1     -17.321   5.985  -9.068  0.00  0.00    +0.002 A 
ENDROOT
BRANCH   6  14
ATOM     14  S   UNL     1     -14.373   4.432 -15.778  0.00  0.00    +0.074 S 
ATOM     15  O   UNL     1     -14.224   4.814 -17.221  0.00  0.00    -0.150 OA
ATOM     16  O   UNL     1     -15.610   3.627 -15.943  0.00  0.00    -0.150 OA
BRANCH  14  17
ATOM     17  C   UNL     1     -13.000   3.170 -15.927  0.00  0.00    +0.109 A 
ATOM     18  C   UNL     1     -11.709   3.481 -15.495  0.00  0.00    +0.030 A 
ATOM     19  C   UNL     1     -10.713   2.505 -15.600  0.00  0.00    +0.024 A 
ATOM     20  C   UNL     1     -10.998   1.234 -16.120  0.00  0.00    +0.025 A 
ATOM     21  C   UNL     1     -12.278   0.978 -16.620  0.00  0.00    +0.024 A 
ATOM     22  C   UNL     1     -13.295   1.925 -16.494  0.00  0.00    +0.030 A 
BRANCH  20  23
ATOM     23  N   UNL     1      -9.963   0.319 -16.346  0.00  0.00    -0.358 N 
ATOM     24  H   UNL     1     -10.272  -0.560 -16.748  0.00  0.00    +0.142 HD
ATOM     25  H   UNL     1      -9.170   0.712 -16.843  0.00  0.00    +0.142 HD
ENDBRANCH  20  23
ENDBRANCH  14  17
ENDBRANCH   6  14
TORSDOF 3
ENDMDL
