MODEL 1
REMARK VINA RESULT:      -7.5      0.000      0.000
REMARK  Name = min_compound987.pdb
REMARK  4 active torsions:
REMARK  status: ('A' for Active; 'I' for Inactive)
REMARK    1  A    between atoms: _6  and  _21
REMARK    2  A    between atoms: _7  and  _20
REMARK    3  A    between atoms: _14  and  _15
REMARK    4  A    between atoms: _18  and  _19
REMARK                            x       y       z     vdW  Elec       q    Type
REMARK                         _______ _______ _______ _____ _____    ______ ____
ROOT
ATOM      1  C   UNL     1     -15.718   1.266  -3.887  0.00  0.00    +0.005 A 
ATOM      2  C   UNL     1     -14.378   1.235  -3.495  0.00  0.00    -0.050 A 
ATOM      3  C   UNL     1     -13.488   2.417  -3.735  0.00  0.00    +0.044 C 
ATOM      4  C   UNL     1     -13.852   0.063  -2.928  0.00  0.00    +0.014 A 
ATOM      5  C   UNL     1     -14.678  -1.068  -2.737  0.00  0.00    +0.008 A 
ATOM      6  C   UNL     1     -14.461  -2.375  -2.197  0.00  0.00    +0.008 A 
ATOM      7  C   UNL     1     -13.330  -2.963  -1.620  0.00  0.00    +0.011 A 
ATOM      8  C   UNL     1     -13.397  -4.278  -1.172  0.00  0.00    +0.013 A 
ATOM      9  C   UNL     1     -14.523  -5.100  -1.347  0.00  0.00    +0.029 A 
ATOM     10  C   UNL     1     -14.451  -6.450  -0.861  0.00  0.00    +0.125 A 
ATOM     11  C   UNL     1     -15.589  -7.212  -1.148  0.00  0.00    +0.049 A 
ATOM     12  C   UNL     1     -16.695  -6.733  -1.873  0.00  0.00    +0.049 A 
ATOM     13  C   UNL     1     -16.817  -5.424  -2.370  0.00  0.00    +0.127 A 
ATOM     14  C   UNL     1     -15.700  -4.560  -2.028  0.00  0.00    +0.051 A 
ATOM     15  C   UNL     1     -15.635  -3.130  -2.339  0.00  0.00    +0.061 A 
ATOM     16  N   UNL     1     -16.592  -2.196  -2.739  0.00  0.00    -0.342 N 
ATOM     17  C   UNL     1     -18.025  -2.327  -2.577  0.00  0.00    +0.149 C 
ATOM     18  C   UNL     1     -16.010  -0.993  -3.112  0.00  0.00    +0.050 A 
ATOM     19  C   UNL     1     -16.557   0.162  -3.693  0.00  0.00    +0.027 A 
ENDROOT
BRANCH  10  20
ATOM     20  O   UNL     1     -13.464  -6.974  -0.218  0.00  0.00    -0.506 OA
ATOM     21  H   UNL     1     -13.624  -7.490   0.547  0.00  0.00    +0.292 HD
ENDBRANCH  10  20
BRANCH  13  22
ATOM     22  O   UNL     1     -17.838  -5.132  -3.094  0.00  0.00    -0.506 OA
ATOM     23  H   UNL     1     -18.674  -5.505  -2.898  0.00  0.00    +0.292 HD
ENDBRANCH  13  22
TORSDOF 2
ENDMDL
MODEL 2
REMARK VINA RESULT:      -7.5     14.859     16.325
REMARK  Name = min_compound987.pdb
REMARK  4 active torsions:
REMARK  status: ('A' for Active; 'I' for Inactive)
REMARK    1  A    between atoms: _6  and  _21
REMARK    2  A    between atoms: _7  and  _20
REMARK    3  A    between atoms: _14  and  _15
REMARK    4  A    between atoms: _18  and  _19
REMARK                            x       y       z     vdW  Elec       q    Type
REMARK                         _______ _______ _______ _____ _____    ______ ____
ROOT
ATOM      1  C   UNL     1     -14.974   7.993 -16.718  0.00  0.00    +0.005 A 
ATOM      2  C   UNL     1     -16.017   7.287 -16.114  0.00  0.00    -0.050 A 
ATOM      3  C   UNL     1     -17.224   8.009 -15.595  0.00  0.00    +0.044 C 
ATOM      4  C   UNL     1     -15.900   5.898 -15.941  0.00  0.00    +0.014 A 
ATOM      5  C   UNL     1     -14.747   5.218 -16.393  0.00  0.00    +0.008 A 
ATOM      6  C   UNL     1     -14.331   3.849 -16.377  0.00  0.00    +0.008 A 
ATOM      7  C   UNL     1     -14.976   2.691 -15.932  0.00  0.00    +0.011 A 
ATOM      8  C   UNL     1     -14.327   1.465 -16.034  0.00  0.00    +0.013 A 
ATOM      9  C   UNL     1     -13.002   1.325 -16.481  0.00  0.00    +0.029 A 
ATOM     10  C   UNL     1     -12.441   0.003 -16.512  0.00  0.00    +0.125 A 
ATOM     11  C   UNL     1     -11.097  -0.027 -16.898  0.00  0.00    +0.049 A 
ATOM     12  C   UNL     1     -10.337   1.118 -17.197  0.00  0.00    +0.049 A 
ATOM     13  C   UNL     1     -10.835   2.432 -17.183  0.00  0.00    +0.127 A 
ATOM     14  C   UNL     1     -12.252   2.518 -16.871  0.00  0.00    +0.051 A 
ATOM     15  C   UNL     1     -13.029   3.760 -16.894  0.00  0.00    +0.061 A 
ATOM     16  N   UNL     1     -12.787   5.028 -17.422  0.00  0.00    -0.342 N 
ATOM     17  C   UNL     1     -11.824   5.346 -18.456  0.00  0.00    +0.149 C 
ATOM     18  C   UNL     1     -13.743   5.946 -17.013  0.00  0.00    +0.050 A 
ATOM     19  C   UNL     1     -13.829   7.337 -17.186  0.00  0.00    +0.027 A 
ENDROOT
BRANCH  10  20
ATOM     20  O   UNL     1     -13.058  -1.092 -16.222  0.00  0.00    -0.506 OA
ATOM     21  H   UNL     1     -13.090  -1.391 -15.335  0.00  0.00    +0.292 HD
ENDBRANCH  10  20
BRANCH  13  22
ATOM     22  O   UNL     1     -10.020   3.403 -17.389  0.00  0.00    -0.506 OA
ATOM     23  H   UNL     1      -9.615   3.506 -18.227  0.00  0.00    +0.292 HD
ENDBRANCH  13  22
TORSDOF 2
ENDMDL
MODEL 3
REMARK VINA RESULT:      -7.3     14.830     16.989
REMARK  Name = min_compound987.pdb
REMARK  4 active torsions:
REMARK  status: ('A' for Active; 'I' for Inactive)
REMARK    1  A    between atoms: _6  and  _21
REMARK    2  A    between atoms: _7  and  _20
REMARK    3  A    between atoms: _14  and  _15
REMARK    4  A    between atoms: _18  and  _19
REMARK                            x       y       z     vdW  Elec       q    Type
REMARK                         _______ _______ _______ _____ _____    ______ ____
ROOT
ATOM      1  C   UNL     1     -11.104  -0.157 -16.626  0.00  0.00    +0.005 A 
ATOM      2  C   UNL     1     -10.154   0.638 -17.272  0.00  0.00    -0.050 A 
ATOM      3  C   UNL     1      -8.830   0.064 -17.674  0.00  0.00    +0.044 C 
ATOM      4  C   UNL     1     -10.426   1.999 -17.487  0.00  0.00    +0.014 A 
ATOM      5  C   UNL     1     -11.658   2.554 -17.073  0.00  0.00    +0.008 A 
ATOM      6  C   UNL     1     -12.232   3.862 -17.147  0.00  0.00    +0.008 A 
ATOM      7  C   UNL     1     -11.760   5.050 -17.716  0.00  0.00    +0.011 A 
ATOM      8  C   UNL     1     -12.538   6.201 -17.639  0.00  0.00    +0.013 A 
ATOM      9  C   UNL     1     -13.751   6.270 -16.935  0.00  0.00    +0.029 A 
ATOM     10  C   UNL     1     -14.443   7.529 -16.913  0.00  0.00    +0.125 A 
ATOM     11  C   UNL     1     -15.600   7.520 -16.126  0.00  0.00    +0.049 A 
ATOM     12  C   UNL     1     -16.043   6.406 -15.389  0.00  0.00    +0.049 A 
ATOM     13  C   UNL     1     -15.406   5.154 -15.376  0.00  0.00    +0.127 A 
ATOM     14  C   UNL     1     -14.243   5.078 -16.245  0.00  0.00    +0.051 A 
ATOM     15  C   UNL     1     -13.470   3.857 -16.486  0.00  0.00    +0.061 A 
ATOM     16  N   UNL     1     -13.717   2.507 -16.240  0.00  0.00    -0.342 N 
ATOM     17  C   UNL     1     -15.017   1.909 -16.018  0.00  0.00    +0.149 C 
ATOM     18  C   UNL     1     -12.589   1.730 -16.460  0.00  0.00    +0.050 A 
ATOM     19  C   UNL     1     -12.337   0.369 -16.220  0.00  0.00    +0.027 A 
ENDROOT
BRANCH  10  20
ATOM     20  O   UNL     1     -14.087   8.603 -17.531  0.00  0.00    -0.506 OA
ATOM     21  H   UNL     1     -13.363   8.583 -18.125  0.00  0.00    +0.292 HD
ENDBRANCH  10  20
BRANCH  13  22
ATOM     22  O   UNL     1     -15.857   4.240 -14.594  0.00  0.00    -0.506 OA
ATOM     23  H   UNL     1     -16.587   3.715 -14.858  0.00  0.00    +0.292 HD
ENDBRANCH  13  22
TORSDOF 2
ENDMDL
MODEL 4
REMARK VINA RESULT:      -7.1     15.121     17.150
REMARK  Name = min_compound987.pdb
REMARK  4 active torsions:
REMARK  status: ('A' for Active; 'I' for Inactive)
REMARK    1  A    between atoms: _6  and  _21
REMARK    2  A    between atoms: _7  and  _20
REMARK    3  A    between atoms: _14  and  _15
REMARK    4  A    between atoms: _18  and  _19
REMARK                            x       y       z     vdW  Elec       q    Type
REMARK                         _______ _______ _______ _____ _____    ______ ____
ROOT
ATOM      1  C   UNL     1      -9.962   1.203 -17.158  0.00  0.00    +0.005 A 
ATOM      2  C   UNL     1     -10.980   0.421 -16.605  0.00  0.00    -0.050 A 
ATOM      3  C   UNL     1     -10.804  -1.060 -16.456  0.00  0.00    +0.044 C 
ATOM      4  C   UNL     1     -12.195   1.025 -16.245  0.00  0.00    +0.014 A 
ATOM      5  C   UNL     1     -12.380   2.415 -16.421  0.00  0.00    +0.008 A 
ATOM      6  C   UNL     1     -13.462   3.314 -16.158  0.00  0.00    +0.008 A 
ATOM      7  C   UNL     1     -14.717   3.106 -15.578  0.00  0.00    +0.011 A 
ATOM      8  C   UNL     1     -15.593   4.179 -15.444  0.00  0.00    +0.013 A 
ATOM      9  C   UNL     1     -15.328   5.464 -15.946  0.00  0.00    +0.029 A 
ATOM     10  C   UNL     1     -16.331   6.476 -15.764  0.00  0.00    +0.125 A 
ATOM     11  C   UNL     1     -16.009   7.699 -16.362  0.00  0.00    +0.049 A 
ATOM     12  C   UNL     1     -14.837   7.928 -17.107  0.00  0.00    +0.049 A 
ATOM     13  C   UNL     1     -13.826   6.975 -17.315  0.00  0.00    +0.127 A 
ATOM     14  C   UNL     1     -14.066   5.709 -16.643  0.00  0.00    +0.051 A 
ATOM     15  C   UNL     1     -13.116   4.593 -16.620  0.00  0.00    +0.061 A 
ATOM     16  N   UNL     1     -11.760   4.487 -16.930  0.00  0.00    -0.342 N 
ATOM     17  C   UNL     1     -10.817   5.584 -16.995  0.00  0.00    +0.149 C 
ATOM     18  C   UNL     1     -11.340   3.165 -16.946  0.00  0.00    +0.050 A 
ATOM     19  C   UNL     1     -10.119   2.584 -17.327  0.00  0.00    +0.027 A 
ENDROOT
BRANCH  10  20
ATOM     20  O   UNL     1     -17.442   6.338 -15.126  0.00  0.00    -0.506 OA
ATOM     21  H   UNL     1     -18.111   5.776 -15.465  0.00  0.00    +0.292 HD
ENDBRANCH  10  20
BRANCH  13  22
ATOM     22  O   UNL     1     -12.844   7.276 -18.088  0.00  0.00    -0.506 OA
ATOM     23  H   UNL     1     -12.997   7.772 -18.868  0.00  0.00    +0.292 HD
ENDBRANCH  13  22
TORSDOF 2
ENDMDL
MODEL 5
REMARK VINA RESULT:      -6.9     15.432     18.169
REMARK  Name = min_compound987.pdb
REMARK  4 active torsions:
REMARK  status: ('A' for Active; 'I' for Inactive)
REMARK    1  A    between atoms: _6  and  _21
REMARK    2  A    between atoms: _7  and  _20
REMARK    3  A    between atoms: _14  and  _15
REMARK    4  A    between atoms: _18  and  _19
REMARK                            x       y       z     vdW  Elec       q    Type
REMARK                         _______ _______ _______ _____ _____    ______ ____
ROOT
ATOM      1  C   UNL     1     -10.364   1.238 -15.577  0.00  0.00    +0.005 A 
ATOM      2  C   UNL     1     -10.269   0.447 -16.724  0.00  0.00    -0.050 A 
ATOM      3  C   UNL     1      -9.256  -0.655 -16.806  0.00  0.00    +0.044 C 
ATOM      4  C   UNL     1     -11.091   0.729 -17.827  0.00  0.00    +0.014 A 
ATOM      5  C   UNL     1     -12.021   1.792 -17.769  0.00  0.00    +0.008 A 
ATOM      6  C   UNL     1     -12.980   2.323 -18.688  0.00  0.00    +0.008 A 
ATOM      7  C   UNL     1     -13.354   1.917 -19.974  0.00  0.00    +0.011 A 
ATOM      8  C   UNL     1     -14.333   2.631 -20.658  0.00  0.00    +0.013 A 
ATOM      9  C   UNL     1     -14.917   3.810 -20.167  0.00  0.00    +0.029 A 
ATOM     10  C   UNL     1     -15.898   4.465 -20.987  0.00  0.00    +0.125 A 
ATOM     11  C   UNL     1     -16.366   5.669 -20.449  0.00  0.00    +0.049 A 
ATOM     12  C   UNL     1     -15.908   6.223 -19.240  0.00  0.00    +0.049 A 
ATOM     13  C   UNL     1     -14.953   5.625 -18.400  0.00  0.00    +0.127 A 
ATOM     14  C   UNL     1     -14.493   4.328 -18.866  0.00  0.00    +0.051 A 
ATOM     15  C   UNL     1     -13.578   3.459 -18.121  0.00  0.00    +0.061 A 
ATOM     16  N   UNL     1     -13.142   3.445 -16.796  0.00  0.00    -0.342 N 
ATOM     17  C   UNL     1     -13.801   4.089 -15.679  0.00  0.00    +0.149 C 
ATOM     18  C   UNL     1     -12.108   2.540 -16.606  0.00  0.00    +0.050 A 
ATOM     19  C   UNL     1     -11.288   2.287 -15.493  0.00  0.00    +0.027 A 
ENDROOT
BRANCH  10  20
ATOM     20  O   UNL     1     -16.345   4.043 -22.120  0.00  0.00    -0.506 OA
ATOM     21  H   UNL     1     -16.090   3.200 -22.439  0.00  0.00    +0.292 HD
ENDBRANCH  10  20
BRANCH  13  22
ATOM     22  O   UNL     1     -14.551   6.271 -17.365  0.00  0.00    -0.506 OA
ATOM     23  H   UNL     1     -13.802   5.972 -16.888  0.00  0.00    +0.292 HD
ENDBRANCH  13  22
TORSDOF 2
ENDMDL
MODEL 6
REMARK VINA RESULT:      -6.7     14.300     16.681
REMARK  Name = min_compound987.pdb
REMARK  4 active torsions:
REMARK  status: ('A' for Active; 'I' for Inactive)
REMARK    1  A    between atoms: _6  and  _21
REMARK    2  A    between atoms: _7  and  _20
REMARK    3  A    between atoms: _14  and  _15
REMARK    4  A    between atoms: _18  and  _19
REMARK                            x       y       z     vdW  Elec       q    Type
REMARK                         _______ _______ _______ _____ _____    ______ ____
ROOT
ATOM      1  C   UNL     1     -12.383   1.710 -18.350  0.00  0.00    +0.005 A 
ATOM      2  C   UNL     1     -12.407   1.145 -17.073  0.00  0.00    -0.050 A 
ATOM      3  C   UNL     1     -11.815  -0.211 -16.832  0.00  0.00    +0.044 C 
ATOM      4  C   UNL     1     -13.044   1.830 -16.027  0.00  0.00    +0.014 A 
ATOM      5  C   UNL     1     -13.638   3.091 -16.259  0.00  0.00    +0.008 A 
ATOM      6  C   UNL     1     -14.339   4.025 -15.433  0.00  0.00    +0.008 A 
ATOM      7  C   UNL     1     -14.634   4.013 -14.065  0.00  0.00    +0.011 A 
ATOM      8  C   UNL     1     -15.347   5.071 -13.510  0.00  0.00    +0.013 A 
ATOM      9  C   UNL     1     -15.878   6.128 -14.266  0.00  0.00    +0.029 A 
ATOM     10  C   UNL     1     -16.619   7.144 -13.572  0.00  0.00    +0.125 A 
ATOM     11  C   UNL     1     -17.171   8.113 -14.417  0.00  0.00    +0.049 A 
ATOM     12  C   UNL     1     -17.056   8.094 -15.819  0.00  0.00    +0.049 A 
ATOM     13  C   UNL     1     -16.344   7.126 -16.547  0.00  0.00    +0.127 A 
ATOM     14  C   UNL     1     -15.676   6.140 -15.715  0.00  0.00    +0.051 A 
ATOM     15  C   UNL     1     -14.790   5.091 -16.227  0.00  0.00    +0.061 A 
ATOM     16  N   UNL     1     -14.153   4.894 -17.452  0.00  0.00    -0.342 N 
ATOM     17  C   UNL     1     -13.893   5.913 -18.446  0.00  0.00    +0.149 C 
ATOM     18  C   UNL     1     -13.572   3.636 -17.532  0.00  0.00    +0.050 A 
ATOM     19  C   UNL     1     -12.953   2.965 -18.599  0.00  0.00    +0.027 A 
ENDROOT
BRANCH  10  20
ATOM     20  O   UNL     1     -16.798   7.216 -12.297  0.00  0.00    -0.506 OA
ATOM     21  H   UNL     1     -16.431   7.927 -11.811  0.00  0.00    +0.292 HD
ENDBRANCH  10  20
BRANCH  13  22
ATOM     22  O   UNL     1     -16.386   7.166 -17.831  0.00  0.00    -0.506 OA
ATOM     23  H   UNL     1     -16.164   7.956 -18.282  0.00  0.00    +0.292 HD
ENDBRANCH  13  22
TORSDOF 2
ENDMDL
MODEL 7
REMARK VINA RESULT:      -6.6      4.243      6.280
REMARK  Name = min_compound987.pdb
REMARK  4 active torsions:
REMARK  status: ('A' for Active; 'I' for Inactive)
REMARK    1  A    between atoms: _6  and  _21
REMARK    2  A    between atoms: _7  and  _20
REMARK    3  A    between atoms: _14  and  _15
REMARK    4  A    between atoms: _18  and  _19
REMARK                            x       y       z     vdW  Elec       q    Type
REMARK                         _______ _______ _______ _____ _____    ______ ____
ROOT
ATOM      1  C   UNL     1     -17.312   4.691  -8.977  0.00  0.00    +0.005 A 
ATOM      2  C   UNL     1     -16.482   3.848  -9.719  0.00  0.00    -0.050 A 
ATOM      3  C   UNL     1     -16.197   4.139 -11.162  0.00  0.00    +0.044 C 
ATOM      4  C   UNL     1     -15.962   2.690  -9.120  0.00  0.00    +0.014 A 
ATOM      5  C   UNL     1     -16.261   2.391  -7.771  0.00  0.00    +0.008 A 
ATOM      6  C   UNL     1     -15.897   1.326  -6.887  0.00  0.00    +0.008 A 
ATOM      7  C   UNL     1     -15.060   0.220  -7.064  0.00  0.00    +0.011 A 
ATOM      8  C   UNL     1     -14.883  -0.678  -6.017  0.00  0.00    +0.013 A 
ATOM      9  C   UNL     1     -15.575  -0.592  -4.797  0.00  0.00    +0.029 A 
ATOM     10  C   UNL     1     -15.319  -1.602  -3.808  0.00  0.00    +0.125 A 
ATOM     11  C   UNL     1     -16.109  -1.475  -2.659  0.00  0.00    +0.049 A 
ATOM     12  C   UNL     1     -17.092  -0.484  -2.484  0.00  0.00    +0.049 A 
ATOM     13  C   UNL     1     -17.382   0.525  -3.418  0.00  0.00    +0.127 A 
ATOM     14  C   UNL     1     -16.532   0.496  -4.596  0.00  0.00    +0.051 A 
ATOM     15  C   UNL     1     -16.565   1.499  -5.665  0.00  0.00    +0.061 A 
ATOM     16  N   UNL     1     -17.122   2.774  -5.759  0.00  0.00    -0.342 N 
ATOM     17  C   UNL     1     -17.501   3.618  -4.646  0.00  0.00    +0.149 C 
ATOM     18  C   UNL     1     -17.065   3.263  -7.056  0.00  0.00    +0.050 A 
ATOM     19  C   UNL     1     -17.609   4.422  -7.636  0.00  0.00    +0.027 A 
ENDROOT
BRANCH  10  20
ATOM     20  O   UNL     1     -14.462  -2.560  -3.904  0.00  0.00    -0.506 OA
ATOM     21  H   UNL     1     -14.363  -3.020  -4.714  0.00  0.00    +0.292 HD
ENDBRANCH  10  20
BRANCH  13  22
ATOM     22  O   UNL     1     -18.363   1.320  -3.182  0.00  0.00    -0.506 OA
ATOM     23  H   UNL     1     -18.272   2.239  -3.344  0.00  0.00    +0.292 HD
ENDBRANCH  13  22
TORSDOF 2
ENDMDL
MODEL 8
REMARK VINA RESULT:      -6.5      4.228      7.538
REMARK  Name = min_compound987.pdb
REMARK  4 active torsions:
REMARK  status: ('A' for Active; 'I' for Inactive)
REMARK    1  A    between atoms: _6  and  _21
REMARK    2  A    between atoms: _7  and  _20
REMARK    3  A    between atoms: _14  and  _15
REMARK    4  A    between atoms: _18  and  _19
REMARK                            x       y       z     vdW  Elec       q    Type
REMARK                         _______ _______ _______ _____ _____    ______ ____
ROOT
ATOM      1  C   UNL     1     -16.173  -2.385  -2.243  0.00  0.00    +0.005 A 
ATOM      2  C   UNL     1     -14.840  -2.048  -2.489  0.00  0.00    -0.050 A 
ATOM      3  C   UNL     1     -13.754  -2.526  -1.573  0.00  0.00    +0.044 C 
ATOM      4  C   UNL     1     -14.529  -1.204  -3.567  0.00  0.00    +0.014 A 
ATOM      5  C   UNL     1     -15.554  -0.718  -4.410  0.00  0.00    +0.008 A 
ATOM      6  C   UNL     1     -15.573   0.129  -5.563  0.00  0.00    +0.008 A 
ATOM      7  C   UNL     1     -14.539   0.735  -6.284  0.00  0.00    +0.011 A 
ATOM      8  C   UNL     1     -14.847   1.526  -7.386  0.00  0.00    +0.013 A 
ATOM      9  C   UNL     1     -16.161   1.835  -7.776  0.00  0.00    +0.029 A 
ATOM     10  C   UNL     1     -16.339   2.687  -8.918  0.00  0.00    +0.125 A 
ATOM     11  C   UNL     1     -17.678   2.998  -9.183  0.00  0.00    +0.049 A 
ATOM     12  C   UNL     1     -18.759   2.560  -8.396  0.00  0.00    +0.049 A 
ATOM     13  C   UNL     1     -18.640   1.726  -7.271  0.00  0.00    +0.127 A 
ATOM     14  C   UNL     1     -17.278   1.300  -6.998  0.00  0.00    +0.051 A 
ATOM     15  C   UNL     1     -16.905   0.350  -5.946  0.00  0.00    +0.061 A 
ATOM     16  N   UNL     1     -17.636  -0.549  -5.170  0.00  0.00    -0.342 N 
ATOM     17  C   UNL     1     -18.952  -1.064  -5.481  0.00  0.00    +0.149 C 
ATOM     18  C   UNL     1     -16.863  -1.095  -4.154  0.00  0.00    +0.050 A 
ATOM     19  C   UNL     1     -17.203  -1.926  -3.074  0.00  0.00    +0.027 A 
ENDROOT
BRANCH  10  20
ATOM     20  O   UNL     1     -15.403   3.157  -9.669  0.00  0.00    -0.506 OA
ATOM     21  H   UNL     1     -15.616   3.562 -10.486  0.00  0.00    +0.292 HD
ENDBRANCH  10  20
BRANCH  13  22
ATOM     22  O   UNL     1     -19.693   1.467  -6.583  0.00  0.00    -0.506 OA
ATOM     23  H   UNL     1     -20.455   2.005  -6.670  0.00  0.00    +0.292 HD
ENDBRANCH  13  22
TORSDOF 2
ENDMDL
MODEL 9
REMARK VINA RESULT:      -6.5      3.909      7.598
REMARK  Name = min_compound987.pdb
REMARK  4 active torsions:
REMARK  status: ('A' for Active; 'I' for Inactive)
REMARK    1  A    between atoms: _6  and  _21
REMARK    2  A    between atoms: _7  and  _20
REMARK    3  A    between atoms: _14  and  _15
REMARK    4  A    between atoms: _18  and  _19
REMARK                            x       y       z     vdW  Elec       q    Type
REMARK                         _______ _______ _______ _____ _____    ______ ____
ROOT
ATOM      1  C   UNL     1     -14.599  -2.039  -1.750  0.00  0.00    +0.005 A 
ATOM      2  C   UNL     1     -15.901  -2.546  -1.755  0.00  0.00    -0.050 A 
ATOM      3  C   UNL     1     -16.315  -3.588  -0.760  0.00  0.00    +0.044 C 
ATOM      4  C   UNL     1     -16.804  -2.117  -2.741  0.00  0.00    +0.014 A 
ATOM      5  C   UNL     1     -16.405  -1.164  -3.706  0.00  0.00    +0.008 A 
ATOM      6  C   UNL     1     -17.064  -0.532  -4.807  0.00  0.00    +0.008 A 
ATOM      7  C   UNL     1     -18.380  -0.621  -5.274  0.00  0.00    +0.011 A 
ATOM      8  C   UNL     1     -18.760   0.117  -6.391  0.00  0.00    +0.013 A 
ATOM      9  C   UNL     1     -17.867   0.891  -7.149  0.00  0.00    +0.029 A 
ATOM     10  C   UNL     1     -18.384   1.583  -8.296  0.00  0.00    +0.125 A 
ATOM     11  C   UNL     1     -17.407   2.265  -9.029  0.00  0.00    +0.049 A 
ATOM     12  C   UNL     1     -16.036   2.258  -8.711  0.00  0.00    +0.049 A 
ATOM     13  C   UNL     1     -15.478   1.600  -7.602  0.00  0.00    +0.127 A 
ATOM     14  C   UNL     1     -16.459   0.944  -6.755  0.00  0.00    +0.051 A 
ATOM     15  C   UNL     1     -16.143   0.279  -5.488  0.00  0.00    +0.061 A 
ATOM     16  N   UNL     1     -15.027   0.300  -4.651  0.00  0.00    -0.342 N 
ATOM     17  C   UNL     1     -14.002   1.322  -4.630  0.00  0.00    +0.149 C 
ATOM     18  C   UNL     1     -15.115  -0.661  -3.654  0.00  0.00    +0.050 A 
ATOM     19  C   UNL     1     -14.188  -1.083  -2.687  0.00  0.00    +0.027 A 
ENDROOT
BRANCH  10  20
ATOM     20  O   UNL     1     -19.617   1.612  -8.674  0.00  0.00    -0.506 OA
ATOM     21  H   UNL     1     -20.239   2.128  -8.201  0.00  0.00    +0.292 HD
ENDBRANCH  10  20
BRANCH  13  22
ATOM     22  O   UNL     1     -14.200   1.594  -7.468  0.00  0.00    -0.506 OA
ATOM     23  H   UNL     1     -13.718   0.803  -7.609  0.00  0.00    +0.292 HD
ENDBRANCH  13  22
TORSDOF 2
ENDMDL
