MODEL 1
REMARK VINA RESULT:      -7.3      0.000      0.000
REMARK  Name = min_compound967.pdb
REMARK  3 active torsions:
REMARK  status: ('A' for Active; 'I' for Inactive)
REMARK    1  A    between atoms: _1  and  _2
REMARK    2  A    between atoms: _1  and  _17
REMARK    3  A    between atoms: _8  and  _18
REMARK                            x       y       z     vdW  Elec       q    Type
REMARK                         _______ _______ _______ _____ _____    ______ ____
ROOT
ATOM      1  N   UNL     1     -12.399   3.450 -15.689  0.00  0.00    -0.293 N 
ATOM      2  H   UNL     1     -12.218   3.445 -14.695  0.00  0.00    +0.151 HD
ATOM      3  C   UNL     1     -13.701   3.439 -16.142  0.00  0.00    +0.245 C 
ATOM      4  O   UNL     1     -14.063   3.498 -17.310  0.00  0.00    -0.270 OA
ENDROOT
BRANCH   3   5
ATOM      5  C   UNL     1     -14.729   3.369 -15.078  0.00  0.00    +0.037 A 
ATOM      6  C   UNL     1     -15.822   2.502 -15.192  0.00  0.00    +0.014 A 
ATOM      7  C   UNL     1     -16.795   2.482 -14.189  0.00  0.00    +0.021 A 
ATOM      8  C   UNL     1     -16.667   3.319 -13.079  0.00  0.00    +0.041 A 
ATOM      9  C   UNL     1     -15.581   4.186 -12.966  0.00  0.00    +0.021 A 
ATOM     10 CL   UNL     1     -17.868   3.288 -11.848  0.00  0.00    -0.084 Cl
ATOM     11  C   UNL     1     -14.614   4.219 -13.972  0.00  0.00    +0.014 A 
ENDBRANCH   3   5
BRANCH   1  12
ATOM     12  C   UNL     1     -11.232   3.457 -16.522  0.00  0.00    +0.089 C 
ATOM     13  C   UNL     1     -10.955   4.559 -17.518  0.00  0.00    +0.045 C 
ATOM     14  C   UNL     1     -10.248   4.575 -16.201  0.00  0.00    +0.045 C 
BRANCH  12  15
ATOM     15  N   UNL     1     -10.700   2.072 -16.691  0.00  0.00    -0.278 NA
ATOM     16  C   UNL     1     -10.657   1.312 -15.417  0.00  0.00    +0.114 C 
ATOM     17  C   UNL     1      -9.998  -0.064 -15.609  0.00  0.00    +0.175 C 
ATOM     18  O   UNL     1     -10.692  -0.847 -16.582  0.00  0.00    -0.377 OA
ATOM     19  C   UNL     1     -10.729  -0.151 -17.831  0.00  0.00    +0.175 C 
ATOM     20  C   UNL     1     -11.401   1.222 -17.683  0.00  0.00    +0.114 C 
ENDBRANCH  12  15
ENDBRANCH   1  12
TORSDOF 3
ENDMDL
MODEL 2
REMARK VINA RESULT:      -6.4      3.932      5.931
REMARK  Name = min_compound967.pdb
REMARK  3 active torsions:
REMARK  status: ('A' for Active; 'I' for Inactive)
REMARK    1  A    between atoms: _1  and  _2
REMARK    2  A    between atoms: _1  and  _17
REMARK    3  A    between atoms: _8  and  _18
REMARK                            x       y       z     vdW  Elec       q    Type
REMARK                         _______ _______ _______ _____ _____    ______ ____
ROOT
ATOM      1  N   UNL     1     -12.271   4.685 -18.143  0.00  0.00    -0.293 N 
ATOM      2  H   UNL     1     -11.390   4.451 -18.580  0.00  0.00    +0.151 HD
ATOM      3  C   UNL     1     -12.781   3.861 -17.163  0.00  0.00    +0.245 C 
ATOM      4  O   UNL     1     -13.803   4.052 -16.514  0.00  0.00    -0.270 OA
ENDROOT
BRANCH   3   5
ATOM      5  C   UNL     1     -11.975   2.650 -16.886  0.00  0.00    +0.037 A 
ATOM      6  C   UNL     1     -12.076   1.518 -17.704  0.00  0.00    +0.014 A 
ATOM      7  C   UNL     1     -11.329   0.377 -17.399  0.00  0.00    +0.021 A 
ATOM      8  C   UNL     1     -10.484   0.375 -16.289  0.00  0.00    +0.041 A 
ATOM      9  C   UNL     1     -10.385   1.500 -15.470  0.00  0.00    +0.021 A 
ATOM     10 CL   UNL     1      -9.567  -1.032 -15.919  0.00  0.00    -0.084 Cl
ATOM     11  C   UNL     1     -11.140   2.638 -15.763  0.00  0.00    +0.014 A 
ENDBRANCH   3   5
BRANCH   1  12
ATOM     12  C   UNL     1     -12.894   5.883 -18.626  0.00  0.00    +0.089 C 
ATOM     13  C   UNL     1     -13.112   7.093 -17.748  0.00  0.00    +0.045 C 
ATOM     14  C   UNL     1     -11.958   7.082 -18.699  0.00  0.00    +0.045 C 
BRANCH  12  15
ATOM     15  N   UNL     1     -13.756   5.584 -19.808  0.00  0.00    -0.278 NA
ATOM     16  C   UNL     1     -13.345   4.350 -20.524  0.00  0.00    +0.114 C 
ATOM     17  C   UNL     1     -14.179   4.139 -21.798  0.00  0.00    +0.175 C 
ATOM     18  O   UNL     1     -15.575   4.048 -21.502  0.00  0.00    -0.377 OA
ATOM     19  C   UNL     1     -16.008   5.236 -20.833  0.00  0.00    +0.175 C 
ATOM     20  C   UNL     1     -15.210   5.469 -19.541  0.00  0.00    +0.114 C 
ENDBRANCH  12  15
ENDBRANCH   1  12
TORSDOF 3
ENDMDL
MODEL 3
REMARK VINA RESULT:      -6.3      3.269      6.342
REMARK  Name = min_compound967.pdb
REMARK  3 active torsions:
REMARK  status: ('A' for Active; 'I' for Inactive)
REMARK    1  A    between atoms: _1  and  _2
REMARK    2  A    between atoms: _1  and  _17
REMARK    3  A    between atoms: _8  and  _18
REMARK                            x       y       z     vdW  Elec       q    Type
REMARK                         _______ _______ _______ _____ _____    ______ ____
ROOT
ATOM      1  N   UNL     1     -14.636   3.258 -16.319  0.00  0.00    -0.293 N 
ATOM      2  H   UNL     1     -14.906   2.297 -16.164  0.00  0.00    +0.151 HD
ATOM      3  C   UNL     1     -13.301   3.575 -16.454  0.00  0.00    +0.245 C 
ATOM      4  O   UNL     1     -12.840   4.683 -16.699  0.00  0.00    -0.270 OA
ENDROOT
BRANCH   3   5
ATOM      5  C   UNL     1     -12.372   2.432 -16.299  0.00  0.00    +0.037 A 
ATOM      6  C   UNL     1     -11.180   2.568 -15.578  0.00  0.00    +0.014 A 
ATOM      7  C   UNL     1     -10.306   1.483 -15.478  0.00  0.00    +0.021 A 
ATOM      8  C   UNL     1     -10.629   0.271 -16.090  0.00  0.00    +0.041 A 
ATOM      9  C   UNL     1     -11.814   0.134 -16.812  0.00  0.00    +0.021 A 
ATOM     10 CL   UNL     1      -9.549  -1.062 -15.962  0.00  0.00    -0.084 Cl
ATOM     11  C   UNL     1     -12.684   1.220 -16.926  0.00  0.00    +0.014 A 
ENDBRANCH   3   5
BRANCH   1  12
ATOM     12  C   UNL     1     -15.719   4.196 -16.371  0.00  0.00    +0.089 C 
ATOM     13  C   UNL     1     -16.059   4.973 -17.622  0.00  0.00    +0.045 C 
ATOM     14  C   UNL     1     -16.869   3.766 -17.273  0.00  0.00    +0.045 C 
BRANCH  12  15
ATOM     15  N   UNL     1     -16.042   4.700 -15.003  0.00  0.00    -0.278 NA
ATOM     16  C   UNL     1     -15.552   3.800 -13.928  0.00  0.00    +0.114 C 
ATOM     17  C   UNL     1     -16.003   4.289 -12.541  0.00  0.00    +0.175 C 
ATOM     18  O   UNL     1     -15.535   5.613 -12.274  0.00  0.00    -0.377 OA
ATOM     19  C   UNL     1     -16.012   6.511 -13.281  0.00  0.00    +0.175 C 
ATOM     20  C   UNL     1     -15.563   6.065 -14.681  0.00  0.00    +0.114 C 
ENDBRANCH  12  15
ENDBRANCH   1  12
TORSDOF 3
ENDMDL
MODEL 4
REMARK VINA RESULT:      -6.3      4.102      6.361
REMARK  Name = min_compound967.pdb
REMARK  3 active torsions:
REMARK  status: ('A' for Active; 'I' for Inactive)
REMARK    1  A    between atoms: _1  and  _2
REMARK    2  A    between atoms: _1  and  _17
REMARK    3  A    between atoms: _8  and  _18
REMARK                            x       y       z     vdW  Elec       q    Type
REMARK                         _______ _______ _______ _____ _____    ______ ____
ROOT
ATOM      1  N   UNL     1     -12.395   4.830 -18.749  0.00  0.00    -0.293 N 
ATOM      2  H   UNL     1     -12.796   4.032 -19.222  0.00  0.00    +0.151 HD
ATOM      3  C   UNL     1     -11.614   4.633 -17.630  0.00  0.00    +0.245 C 
ATOM      4  O   UNL     1     -11.025   5.500 -16.995  0.00  0.00    -0.270 OA
ENDROOT
BRANCH   3   5
ATOM      5  C   UNL     1     -11.486   3.221 -17.201  0.00  0.00    +0.037 A 
ATOM      6  C   UNL     1     -10.726   2.879 -16.077  0.00  0.00    +0.014 A 
ATOM      7  C   UNL     1     -10.594   1.536 -15.716  0.00  0.00    +0.021 A 
ATOM      8  C   UNL     1     -11.225   0.547 -16.472  0.00  0.00    +0.041 A 
ATOM      9  C   UNL     1     -11.979   0.885 -17.595  0.00  0.00    +0.021 A 
ATOM     10 CL   UNL     1     -11.059  -1.105 -16.021  0.00  0.00    -0.084 Cl
ATOM     11  C   UNL     1     -12.103   2.226 -17.967  0.00  0.00    +0.014 A 
ENDBRANCH   3   5
BRANCH   1  12
ATOM     12  C   UNL     1     -12.715   6.105 -19.323  0.00  0.00    +0.089 C 
ATOM     13  C   UNL     1     -11.658   7.028 -19.884  0.00  0.00    +0.045 C 
ATOM     14  C   UNL     1     -12.465   6.188 -20.823  0.00  0.00    +0.045 C 
BRANCH  12  15
ATOM     15  N   UNL     1     -14.017   6.607 -18.792  0.00  0.00    -0.278 NA
ATOM     16  C   UNL     1     -14.900   5.516 -18.306  0.00  0.00    +0.114 C 
ATOM     17  C   UNL     1     -16.273   6.058 -17.877  0.00  0.00    +0.175 C 
ATOM     18  O   UNL     1     -16.150   7.038 -16.843  0.00  0.00    -0.377 OA
ATOM     19  C   UNL     1     -15.324   8.117 -17.290  0.00  0.00    +0.175 C 
ATOM     20  C   UNL     1     -13.933   7.615 -17.709  0.00  0.00    +0.114 C 
ENDBRANCH  12  15
ENDBRANCH   1  12
TORSDOF 3
ENDMDL
MODEL 5
REMARK VINA RESULT:      -6.1      3.928      5.833
REMARK  Name = min_compound967.pdb
REMARK  3 active torsions:
REMARK  status: ('A' for Active; 'I' for Inactive)
REMARK    1  A    between atoms: _1  and  _2
REMARK    2  A    between atoms: _1  and  _17
REMARK    3  A    between atoms: _8  and  _18
REMARK                            x       y       z     vdW  Elec       q    Type
REMARK                         _______ _______ _______ _____ _____    ______ ____
ROOT
ATOM      1  N   UNL     1     -13.163   3.864 -17.603  0.00  0.00    -0.293 N 
ATOM      2  H   UNL     1     -13.768   3.555 -18.351  0.00  0.00    +0.151 HD
ATOM      3  C   UNL     1     -12.315   4.930 -17.814  0.00  0.00    +0.245 C 
ATOM      4  O   UNL     1     -11.573   5.442 -16.984  0.00  0.00    -0.270 OA
ENDROOT
BRANCH   3   5
ATOM      5  C   UNL     1     -12.354   5.494 -19.183  0.00  0.00    +0.037 A 
ATOM      6  C   UNL     1     -13.097   4.874 -20.194  0.00  0.00    +0.014 A 
ATOM      7  C   UNL     1     -13.087   5.408 -21.485  0.00  0.00    +0.021 A 
ATOM      8  C   UNL     1     -12.344   6.558 -21.756  0.00  0.00    +0.041 A 
ATOM      9  C   UNL     1     -11.600   7.176 -20.751  0.00  0.00    +0.021 A 
ATOM     10 CL   UNL     1     -12.337   7.212 -23.347  0.00  0.00    -0.084 Cl
ATOM     11  C   UNL     1     -11.597   6.637 -19.462  0.00  0.00    +0.014 A 
ENDBRANCH   3   5
BRANCH   1  12
ATOM     12  C   UNL     1     -13.266   3.116 -16.384  0.00  0.00    +0.089 C 
ATOM     13  C   UNL     1     -13.790   3.723 -15.103  0.00  0.00    +0.045 C 
ATOM     14  C   UNL     1     -14.699   2.869 -15.929  0.00  0.00    +0.045 C 
BRANCH  12  15
ATOM     15  N   UNL     1     -12.317   1.964 -16.395  0.00  0.00    -0.278 NA
ATOM     16  C   UNL     1     -11.966   1.518 -17.767  0.00  0.00    +0.114 C 
ATOM     17  C   UNL     1     -11.083   0.260 -17.738  0.00  0.00    +0.175 C 
ATOM     18  O   UNL     1      -9.873   0.486 -17.011  0.00  0.00    -0.377 OA
ATOM     19  C   UNL     1     -10.177   0.893 -15.674  0.00  0.00    +0.175 C 
ATOM     20  C   UNL     1     -11.043   2.162 -15.662  0.00  0.00    +0.114 C 
ENDBRANCH  12  15
ENDBRANCH   1  12
TORSDOF 3
ENDMDL
MODEL 6
REMARK VINA RESULT:      -6.1      4.027      6.814
REMARK  Name = min_compound967.pdb
REMARK  3 active torsions:
REMARK  status: ('A' for Active; 'I' for Inactive)
REMARK    1  A    between atoms: _1  and  _2
REMARK    2  A    between atoms: _1  and  _17
REMARK    3  A    between atoms: _8  and  _18
REMARK                            x       y       z     vdW  Elec       q    Type
REMARK                         _______ _______ _______ _____ _____    ______ ____
ROOT
ATOM      1  N   UNL     1     -14.348   5.464 -17.238  0.00  0.00    -0.293 N 
ATOM      2  H   UNL     1     -14.776   4.595 -16.951  0.00  0.00    +0.151 HD
ATOM      3  C   UNL     1     -12.974   5.575 -17.240  0.00  0.00    +0.245 C 
ATOM      4  O   UNL     1     -12.326   6.544 -17.615  0.00  0.00    -0.270 OA
ENDROOT
BRANCH   3   5
ATOM      5  C   UNL     1     -12.252   4.377 -16.753  0.00  0.00    +0.037 A 
ATOM      6  C   UNL     1     -10.897   4.446 -16.410  0.00  0.00    +0.014 A 
ATOM      7  C   UNL     1     -10.232   3.292 -15.987  0.00  0.00    +0.021 A 
ATOM      8  C   UNL     1     -10.924   2.083 -15.901  0.00  0.00    +0.041 A 
ATOM      9  C   UNL     1     -12.273   2.011 -16.246  0.00  0.00    +0.021 A 
ATOM     10 CL   UNL     1     -10.100   0.666 -15.378  0.00  0.00    -0.084 Cl
ATOM     11  C   UNL     1     -12.938   3.159 -16.683  0.00  0.00    +0.014 A 
ENDBRANCH   3   5
BRANCH   1  12
ATOM     12  C   UNL     1     -15.264   6.503 -17.610  0.00  0.00    +0.089 C 
ATOM     13  C   UNL     1     -15.230   7.164 -18.968  0.00  0.00    +0.045 C 
ATOM     14  C   UNL     1     -16.247   6.100 -18.702  0.00  0.00    +0.045 C 
BRANCH  12  15
ATOM     15  N   UNL     1     -15.796   7.190 -16.396  0.00  0.00    -0.278 NA
ATOM     16  C   UNL     1     -15.622   6.390 -15.157  0.00  0.00    +0.114 C 
ATOM     17  C   UNL     1     -16.284   7.076 -13.951  0.00  0.00    +0.175 C 
ATOM     18  O   UNL     1     -15.744   8.381 -13.728  0.00  0.00    -0.377 OA
ATOM     19  C   UNL     1     -15.919   9.186 -14.897  0.00  0.00    +0.175 C 
ATOM     20  C   UNL     1     -15.251   8.542 -16.122  0.00  0.00    +0.114 C 
ENDBRANCH  12  15
ENDBRANCH   1  12
TORSDOF 3
ENDMDL
MODEL 7
REMARK VINA RESULT:      -6.1      3.449      6.378
REMARK  Name = min_compound967.pdb
REMARK  3 active torsions:
REMARK  status: ('A' for Active; 'I' for Inactive)
REMARK    1  A    between atoms: _1  and  _2
REMARK    2  A    between atoms: _1  and  _17
REMARK    3  A    between atoms: _8  and  _18
REMARK                            x       y       z     vdW  Elec       q    Type
REMARK                         _______ _______ _______ _____ _____    ______ ____
ROOT
ATOM      1  N   UNL     1     -13.926   3.727 -15.100  0.00  0.00    -0.293 N 
ATOM      2  H   UNL     1     -12.996   4.065 -14.892  0.00  0.00    +0.151 HD
ATOM      3  C   UNL     1     -14.078   2.561 -15.820  0.00  0.00    +0.245 C 
ATOM      4  O   UNL     1     -15.137   2.010 -16.093  0.00  0.00    -0.270 OA
ENDROOT
BRANCH   3   5
ATOM      5  C   UNL     1     -12.811   1.938 -16.268  0.00  0.00    +0.037 A 
ATOM      6  C   UNL     1     -12.766   0.587 -16.635  0.00  0.00    +0.014 A 
ATOM      7  C   UNL     1     -11.551   0.017 -17.022  0.00  0.00    +0.021 A 
ATOM      8  C   UNL     1     -10.394   0.796 -17.047  0.00  0.00    +0.041 A 
ATOM      9  C   UNL     1     -10.435   2.140 -16.678  0.00  0.00    +0.021 A 
ATOM     10 CL   UNL     1      -8.900   0.088 -17.524  0.00  0.00    -0.084 Cl
ATOM     11  C   UNL     1     -11.645   2.711 -16.278  0.00  0.00    +0.014 A 
ENDBRANCH   3   5
BRANCH   1  12
ATOM     12  C   UNL     1     -14.998   4.542 -14.606  0.00  0.00    +0.089 C 
ATOM     13  C   UNL     1     -15.996   4.037 -13.591  0.00  0.00    +0.045 C 
ATOM     14  C   UNL     1     -14.869   4.908 -13.133  0.00  0.00    +0.045 C 
BRANCH  12  15
ATOM     15  N   UNL     1     -15.323   5.625 -15.581  0.00  0.00    -0.278 NA
ATOM     16  C   UNL     1     -14.248   5.841 -16.583  0.00  0.00    +0.114 C 
ATOM     17  C   UNL     1     -14.565   7.039 -17.493  0.00  0.00    +0.175 C 
ATOM     18  O   UNL     1     -15.803   6.858 -18.186  0.00  0.00    -0.377 OA
ATOM     19  C   UNL     1     -16.865   6.672 -17.245  0.00  0.00    +0.175 C 
ATOM     20  C   UNL     1     -16.592   5.468 -16.330  0.00  0.00    +0.114 C 
ENDBRANCH  12  15
ENDBRANCH   1  12
TORSDOF 3
ENDMDL
MODEL 8
REMARK VINA RESULT:      -6.0      6.448      9.177
REMARK  Name = min_compound967.pdb
REMARK  3 active torsions:
REMARK  status: ('A' for Active; 'I' for Inactive)
REMARK    1  A    between atoms: _1  and  _2
REMARK    2  A    between atoms: _1  and  _17
REMARK    3  A    between atoms: _8  and  _18
REMARK                            x       y       z     vdW  Elec       q    Type
REMARK                         _______ _______ _______ _____ _____    ______ ____
ROOT
ATOM      1  N   UNL     1     -17.343   2.037  -8.911  0.00  0.00    -0.293 N 
ATOM      2  H   UNL     1     -17.234   1.353  -9.647  0.00  0.00    +0.151 HD
ATOM      3  C   UNL     1     -17.050   3.359  -9.165  0.00  0.00    +0.245 C 
ATOM      4  O   UNL     1     -17.188   4.295  -8.386  0.00  0.00    -0.270 OA
ENDROOT
BRANCH   3   5
ATOM      5  C   UNL     1     -16.540   3.633 -10.528  0.00  0.00    +0.037 A 
ATOM      6  C   UNL     1     -15.458   4.498 -10.729  0.00  0.00    +0.014 A 
ATOM      7  C   UNL     1     -15.020   4.765 -12.029  0.00  0.00    +0.021 A 
ATOM      8  C   UNL     1     -15.658   4.164 -13.115  0.00  0.00    +0.041 A 
ATOM      9  C   UNL     1     -16.739   3.305 -12.917  0.00  0.00    +0.021 A 
ATOM     10 CL   UNL     1     -15.113   4.496 -14.713  0.00  0.00    -0.084 Cl
ATOM     11  C   UNL     1     -17.188   3.046 -11.621  0.00  0.00    +0.014 A 
ENDBRANCH   3   5
BRANCH   1  12
ATOM     12  C   UNL     1     -17.796   1.514  -7.654  0.00  0.00    +0.089 C 
ATOM     13  C   UNL     1     -19.150   1.855  -7.077  0.00  0.00    +0.045 C 
ATOM     14  C   UNL     1     -18.964   0.544  -7.772  0.00  0.00    +0.045 C 
BRANCH  12  15
ATOM     15  N   UNL     1     -16.635   1.126  -6.800  0.00  0.00    -0.278 NA
ATOM     16  C   UNL     1     -15.396   0.888  -7.584  0.00  0.00    +0.114 C 
ATOM     17  C   UNL     1     -14.256   0.377  -6.688  0.00  0.00    +0.175 C 
ATOM     18  O   UNL     1     -13.959   1.303  -5.639  0.00  0.00    -0.377 OA
ATOM     19  C   UNL     1     -15.129   1.534  -4.848  0.00  0.00    +0.175 C 
ATOM     20  C   UNL     1     -16.286   2.066  -5.709  0.00  0.00    +0.114 C 
ENDBRANCH  12  15
ENDBRANCH   1  12
TORSDOF 3
ENDMDL
MODEL 9
REMARK VINA RESULT:      -5.9     13.153     15.254
REMARK  Name = min_compound967.pdb
REMARK  3 active torsions:
REMARK  status: ('A' for Active; 'I' for Inactive)
REMARK    1  A    between atoms: _1  and  _2
REMARK    2  A    between atoms: _1  and  _17
REMARK    3  A    between atoms: _8  and  _18
REMARK                            x       y       z     vdW  Elec       q    Type
REMARK                         _______ _______ _______ _____ _____    ______ ____
ROOT
ATOM      1  N   UNL     1     -16.069  -1.746  -1.561  0.00  0.00    -0.293 N 
ATOM      2  H   UNL     1     -16.784  -1.277  -2.100  0.00  0.00    +0.151 HD
ATOM      3  C   UNL     1     -14.758  -1.698  -1.985  0.00  0.00    +0.245 C 
ATOM      4  O   UNL     1     -13.790  -2.171  -1.404  0.00  0.00    -0.270 OA
ENDROOT
BRANCH   3   5
ATOM      5  C   UNL     1     -14.544  -0.978  -3.262  0.00  0.00    +0.037 A 
ATOM      6  C   UNL     1     -14.162   0.369  -3.271  0.00  0.00    +0.014 A 
ATOM      7  C   UNL     1     -14.001   1.033  -4.490  0.00  0.00    +0.021 A 
ATOM      8  C   UNL     1     -14.213   0.349  -5.688  0.00  0.00    +0.041 A 
ATOM      9  C   UNL     1     -14.597  -0.992  -5.681  0.00  0.00    +0.021 A 
ATOM     10 CL   UNL     1     -14.011   1.171  -7.185  0.00  0.00    -0.084 Cl
ATOM     11  C   UNL     1     -14.773  -1.656  -4.465  0.00  0.00    +0.014 A 
ENDBRANCH   3   5
BRANCH   1  12
ATOM     12  C   UNL     1     -16.536  -2.430  -0.390  0.00  0.00    +0.089 C 
ATOM     13  C   UNL     1     -16.227  -1.945   1.008  0.00  0.00    +0.045 C 
ATOM     14  C   UNL     1     -17.567  -1.647   0.414  0.00  0.00    +0.045 C 
BRANCH  12  15
ATOM     15  N   UNL     1     -16.816  -3.863  -0.698  0.00  0.00    -0.278 NA
ATOM     16  C   UNL     1     -17.159  -4.090  -2.124  0.00  0.00    +0.114 C 
ATOM     17  C   UNL     1     -17.555  -5.554  -2.378  0.00  0.00    +0.175 C 
ATOM     18  O   UNL     1     -16.503  -6.452  -2.016  0.00  0.00    -0.377 OA
ATOM     19  C   UNL     1     -16.166  -6.275  -0.637  0.00  0.00    +0.175 C 
ATOM     20  C   UNL     1     -15.744  -4.826  -0.348  0.00  0.00    +0.114 C 
ENDBRANCH  12  15
ENDBRANCH   1  12
TORSDOF 3
ENDMDL
