MODEL 1
REMARK VINA RESULT:      -6.0      0.000      0.000
REMARK  Name = min_compound977.pdb
REMARK  10 active torsions:
REMARK  status: ('A' for Active; 'I' for Inactive)
REMARK    1  A    between atoms: _7  and  _9
REMARK    2  A    between atoms: _9  and  _10
REMARK    3  A    between atoms: _10  and  _11
REMARK    4  A    between atoms: _10  and  _12
REMARK    5  A    between atoms: _12  and  _13
REMARK    6  A    between atoms: _13  and  _14
REMARK    7  A    between atoms: _14  and  _15
REMARK    8  A    between atoms: _15  and  _16
REMARK    9  A    between atoms: _16  and  _17
REMARK   10  A    between atoms: _18  and  _20
REMARK                            x       y       z     vdW  Elec       q    Type
REMARK                         _______ _______ _______ _____ _____    ______ ____
ROOT
ATOM      1  C   UNL     1     -15.952   2.291  -3.808  0.00  0.00    +0.009 A 
ATOM      2  C   UNL     1     -16.048   0.845  -3.601  0.00  0.00    +0.019 A 
ATOM      3  C   UNL     1     -17.112   0.078  -3.944  0.00  0.00    +0.319 C 
ATOM      4  O   UNL     1     -17.037  -1.305  -3.754  0.00  0.00    -0.195 OA
ATOM      5  O   UNL     1     -16.358  -1.568  -2.471  0.00  0.00    -0.195 OA
ATOM      6  C   UNL     1     -15.053  -1.081  -2.560  0.00  0.00    +0.316 C 
ATOM      7  C   UNL     1     -14.852   0.145  -3.087  0.00  0.00    +0.018 A 
ATOM      8  C   UNL     1     -13.557   0.815  -3.243  0.00  0.00    +0.009 A 
ATOM      9  C   UNL     1     -13.523   2.112  -3.609  0.00  0.00    +0.000 A 
ATOM     10  C   UNL     1     -14.743   2.881  -3.814  0.00  0.00    +0.000 A 
ENDROOT
BRANCH   6  11
ATOM     11  O   UNL     1     -14.064  -1.849  -1.986  0.00  0.00    -0.361 OA
ATOM     12  H   UNL     1     -14.097  -1.730  -1.024  0.00  0.00    +0.213 HD
ENDBRANCH   6  11
BRANCH   3  13
ATOM     13  O   UNL     1     -18.205   0.550  -4.674  0.00  0.00    -0.342 OA
BRANCH  13  14
ATOM     14  C   UNL     1     -18.142   0.353  -6.262  0.00  0.00    +0.119 C 
ATOM     15  C   UNL     1     -19.554  -0.258  -6.705  0.00  0.00    +0.038 C 
BRANCH  14  16
ATOM     16  C   UNL     1     -18.545   1.747  -6.642  0.00  0.00    +0.031 C 
BRANCH  16  17
ATOM     17  C   UNL     1     -17.120   2.115  -7.311  0.00  0.00    +0.002 C 
BRANCH  17  18
ATOM     18  C   UNL     1     -16.199   0.902  -7.500  0.00  0.00    +0.000 C 
BRANCH  18  19
ATOM     19  C   UNL     1     -14.742   1.255  -7.186  0.00  0.00    -0.000 C 
BRANCH  19  20
ATOM     20  C   UNL     1     -13.949   0.024  -6.748  0.00  0.00    -0.003 C 
ATOM     21  C   UNL     1     -14.866  -1.157  -6.469  0.00  0.00    +0.004 C 
ENDBRANCH  19  20
ENDBRANCH  18  19
ENDBRANCH  17  18
ENDBRANCH  16  17
ENDBRANCH  14  16
ENDBRANCH  13  14
ENDBRANCH   3  13
TORSDOF 8
ENDMDL
MODEL 2
REMARK VINA RESULT:      -5.8      1.273      1.859
REMARK  Name = min_compound977.pdb
REMARK  10 active torsions:
REMARK  status: ('A' for Active; 'I' for Inactive)
REMARK    1  A    between atoms: _7  and  _9
REMARK    2  A    between atoms: _9  and  _10
REMARK    3  A    between atoms: _10  and  _11
REMARK    4  A    between atoms: _10  and  _12
REMARK    5  A    between atoms: _12  and  _13
REMARK    6  A    between atoms: _13  and  _14
REMARK    7  A    between atoms: _14  and  _15
REMARK    8  A    between atoms: _15  and  _16
REMARK    9  A    between atoms: _16  and  _17
REMARK   10  A    between atoms: _18  and  _20
REMARK                            x       y       z     vdW  Elec       q    Type
REMARK                         _______ _______ _______ _____ _____    ______ ____
ROOT
ATOM      1  C   UNL     1     -14.811   2.760  -3.868  0.00  0.00    +0.009 A 
ATOM      2  C   UNL     1     -15.878   1.756  -3.887  0.00  0.00    +0.019 A 
ATOM      3  C   UNL     1     -17.072   1.901  -4.512  0.00  0.00    +0.319 C 
ATOM      4  O   UNL     1     -17.970   0.830  -4.509  0.00  0.00    -0.195 OA
ATOM      5  O   UNL     1     -17.939   0.194  -3.179  0.00  0.00    -0.195 OA
ATOM      6  C   UNL     1     -16.660  -0.325  -2.972  0.00  0.00    +0.316 C 
ATOM      7  C   UNL     1     -15.591   0.440  -3.279  0.00  0.00    +0.018 A 
ATOM      8  C   UNL     1     -14.184   0.064  -3.114  0.00  0.00    +0.009 A 
ATOM      9  C   UNL     1     -13.225   0.995  -3.282  0.00  0.00    +0.000 A 
ATOM     10  C   UNL     1     -13.552   2.383  -3.584  0.00  0.00    +0.000 A 
ENDROOT
BRANCH   6  11
ATOM     11  O   UNL     1     -16.581  -1.552  -2.351  0.00  0.00    -0.361 OA
ATOM     12  H   UNL     1     -17.447  -1.764  -1.970  0.00  0.00    +0.213 HD
ENDBRANCH   6  11
BRANCH   3  13
ATOM     13  O   UNL     1     -17.386   2.977  -5.346  0.00  0.00    -0.342 OA
BRANCH  13  14
ATOM     14  C   UNL     1     -18.200   2.632  -6.681  0.00  0.00    +0.119 C 
ATOM     15  C   UNL     1     -19.247   3.824  -6.901  0.00  0.00    +0.038 C 
BRANCH  14  16
ATOM     16  C   UNL     1     -17.221   3.217  -7.655  0.00  0.00    +0.031 C 
BRANCH  16  17
ATOM     17  C   UNL     1     -17.133   1.884  -8.566  0.00  0.00    +0.002 C 
BRANCH  17  18
ATOM     18  C   UNL     1     -16.310   0.757  -7.926  0.00  0.00    +0.000 C 
BRANCH  18  19
ATOM     19  C   UNL     1     -14.934   1.259  -7.477  0.00  0.00    -0.000 C 
BRANCH  19  20
ATOM     20  C   UNL     1     -14.151   0.169  -6.746  0.00  0.00    -0.003 C 
ATOM     21  C   UNL     1     -14.997  -1.077  -6.536  0.00  0.00    +0.004 C 
ENDBRANCH  19  20
ENDBRANCH  18  19
ENDBRANCH  17  18
ENDBRANCH  16  17
ENDBRANCH  14  16
ENDBRANCH  13  14
ENDBRANCH   3  13
TORSDOF 8
ENDMDL
MODEL 3
REMARK VINA RESULT:      -5.7      9.477     11.806
REMARK  Name = min_compound977.pdb
REMARK  10 active torsions:
REMARK  status: ('A' for Active; 'I' for Inactive)
REMARK    1  A    between atoms: _7  and  _9
REMARK    2  A    between atoms: _9  and  _10
REMARK    3  A    between atoms: _10  and  _11
REMARK    4  A    between atoms: _10  and  _12
REMARK    5  A    between atoms: _12  and  _13
REMARK    6  A    between atoms: _13  and  _14
REMARK    7  A    between atoms: _14  and  _15
REMARK    8  A    between atoms: _15  and  _16
REMARK    9  A    between atoms: _16  and  _17
REMARK   10  A    between atoms: _18  and  _20
REMARK                            x       y       z     vdW  Elec       q    Type
REMARK                         _______ _______ _______ _____ _____    ______ ____
ROOT
ATOM      1  C   UNL     1     -14.847   4.575 -12.946  0.00  0.00    +0.009 A 
ATOM      2  C   UNL     1     -15.206   3.853 -14.168  0.00  0.00    +0.019 A 
ATOM      3  C   UNL     1     -14.359   3.587 -15.193  0.00  0.00    +0.319 C 
ATOM      4  O   UNL     1     -14.819   2.822 -16.269  0.00  0.00    -0.195 OA
ATOM      5  O   UNL     1     -16.202   3.231 -16.580  0.00  0.00    -0.195 OA
ATOM      6  C   UNL     1     -17.003   2.936 -15.476  0.00  0.00    +0.316 C 
ATOM      7  C   UNL     1     -16.560   3.265 -14.244  0.00  0.00    +0.018 A 
ATOM      8  C   UNL     1     -17.273   3.043 -12.983  0.00  0.00    +0.009 A 
ATOM      9  C   UNL     1     -16.796   3.592 -11.848  0.00  0.00    +0.000 A 
ATOM     10  C   UNL     1     -15.610   4.438 -11.847  0.00  0.00    +0.000 A 
ENDROOT
BRANCH   6  11
ATOM     11  O   UNL     1     -18.258   2.431 -15.738  0.00  0.00    -0.361 OA
ATOM     12  H   UNL     1     -18.295   2.157 -16.667  0.00  0.00    +0.213 HD
ENDBRANCH   6  11
BRANCH   3  13
ATOM     13  O   UNL     1     -12.987   3.847 -15.153  0.00  0.00    -0.342 OA
BRANCH  13  14
ATOM     14  C   UNL     1     -12.187   3.676 -16.530  0.00  0.00    +0.119 C 
ATOM     15  C   UNL     1     -11.871   5.152 -17.063  0.00  0.00    +0.038 C 
BRANCH  14  16
ATOM     16  C   UNL     1     -10.819   3.520 -15.935  0.00  0.00    +0.031 C 
BRANCH  16  17
ATOM     17  C   UNL     1     -10.931   1.916 -15.772  0.00  0.00    +0.002 C 
BRANCH  17  18
ATOM     18  C   UNL     1     -11.739   1.240 -16.889  0.00  0.00    +0.000 C 
BRANCH  18  19
ATOM     19  C   UNL     1     -11.852  -0.270 -16.660  0.00  0.00    -0.000 C 
BRANCH  19  20
ATOM     20  C   UNL     1     -10.496  -0.887 -16.320  0.00  0.00    -0.003 C 
ATOM     21  C   UNL     1      -9.602  -0.976 -17.547  0.00  0.00    +0.004 C 
ENDBRANCH  19  20
ENDBRANCH  18  19
ENDBRANCH  17  18
ENDBRANCH  16  17
ENDBRANCH  14  16
ENDBRANCH  13  14
ENDBRANCH   3  13
TORSDOF 8
ENDMDL
MODEL 4
REMARK VINA RESULT:      -5.7      9.451     11.674
REMARK  Name = min_compound977.pdb
REMARK  10 active torsions:
REMARK  status: ('A' for Active; 'I' for Inactive)
REMARK    1  A    between atoms: _7  and  _9
REMARK    2  A    between atoms: _9  and  _10
REMARK    3  A    between atoms: _10  and  _11
REMARK    4  A    between atoms: _10  and  _12
REMARK    5  A    between atoms: _12  and  _13
REMARK    6  A    between atoms: _13  and  _14
REMARK    7  A    between atoms: _14  and  _15
REMARK    8  A    between atoms: _15  and  _16
REMARK    9  A    between atoms: _16  and  _17
REMARK   10  A    between atoms: _18  and  _20
REMARK                            x       y       z     vdW  Elec       q    Type
REMARK                         _______ _______ _______ _____ _____    ______ ____
ROOT
ATOM      1  C   UNL     1     -12.611   0.455 -16.895  0.00  0.00    +0.009 A 
ATOM      2  C   UNL     1     -12.421   1.812 -16.379  0.00  0.00    +0.019 A 
ATOM      3  C   UNL     1     -13.410   2.724 -16.205  0.00  0.00    +0.319 C 
ATOM      4  O   UNL     1     -13.095   3.960 -15.633  0.00  0.00    -0.195 OA
ATOM      5  O   UNL     1     -11.801   4.413 -16.175  0.00  0.00    -0.195 OA
ATOM      6  C   UNL     1     -10.819   3.502 -15.782  0.00  0.00    +0.316 C 
ATOM      7  C   UNL     1     -11.072   2.182 -15.902  0.00  0.00    +0.018 A 
ATOM      8  C   UNL     1     -10.156   1.093 -15.553  0.00  0.00    +0.009 A 
ATOM      9  C   UNL     1     -10.467  -0.171 -15.902  0.00  0.00    +0.000 A 
ATOM     10  C   UNL     1     -11.674  -0.481 -16.657  0.00  0.00    +0.000 A 
ENDROOT
BRANCH   6  11
ATOM     11  O   UNL     1      -9.601   4.026 -15.406  0.00  0.00    -0.361 OA
ATOM     12  H   UNL     1      -9.003   3.296 -15.187  0.00  0.00    +0.213 HD
ENDBRANCH   6  11
BRANCH   3  13
ATOM     13  O   UNL     1     -14.767   2.435 -16.362  0.00  0.00    -0.342 OA
BRANCH  13  14
ATOM     14  C   UNL     1     -15.790   3.334 -15.519  0.00  0.00    +0.119 C 
ATOM     15  C   UNL     1     -17.145   3.406 -16.369  0.00  0.00    +0.038 C 
BRANCH  14  16
ATOM     16  C   UNL     1     -16.318   2.242 -14.636  0.00  0.00    +0.031 C 
BRANCH  16  17
ATOM     17  C   UNL     1     -16.573   3.212 -13.368  0.00  0.00    +0.002 C 
BRANCH  17  18
ATOM     18  C   UNL     1     -15.435   4.214 -13.124  0.00  0.00    +0.000 C 
BRANCH  18  19
ATOM     19  C   UNL     1     -15.336   4.593 -11.643  0.00  0.00    -0.000 C 
BRANCH  19  20
ATOM     20  C   UNL     1     -16.518   4.044 -10.844  0.00  0.00    -0.003 C 
ATOM     21  C   UNL     1     -16.051   3.289  -9.610  0.00  0.00    +0.004 C 
ENDBRANCH  19  20
ENDBRANCH  18  19
ENDBRANCH  17  18
ENDBRANCH  16  17
ENDBRANCH  14  16
ENDBRANCH  13  14
ENDBRANCH   3  13
TORSDOF 8
ENDMDL
MODEL 5
REMARK VINA RESULT:      -5.6      3.582      4.508
REMARK  Name = min_compound977.pdb
REMARK  10 active torsions:
REMARK  status: ('A' for Active; 'I' for Inactive)
REMARK    1  A    between atoms: _7  and  _9
REMARK    2  A    between atoms: _9  and  _10
REMARK    3  A    between atoms: _10  and  _11
REMARK    4  A    between atoms: _10  and  _12
REMARK    5  A    between atoms: _12  and  _13
REMARK    6  A    between atoms: _13  and  _14
REMARK    7  A    between atoms: _14  and  _15
REMARK    8  A    between atoms: _15  and  _16
REMARK    9  A    between atoms: _16  and  _17
REMARK   10  A    between atoms: _18  and  _20
REMARK                            x       y       z     vdW  Elec       q    Type
REMARK                         _______ _______ _______ _____ _____    ______ ____
ROOT
ATOM      1  C   UNL     1     -15.645   2.523  -4.798  0.00  0.00    +0.009 A 
ATOM      2  C   UNL     1     -15.606   1.466  -5.811  0.00  0.00    +0.019 A 
ATOM      3  C   UNL     1     -16.144   1.556  -7.052  0.00  0.00    +0.319 C 
ATOM      4  O   UNL     1     -15.967   0.494  -7.944  0.00  0.00    -0.195 OA
ATOM      5  O   UNL     1     -16.108  -0.772  -7.201  0.00  0.00    -0.195 OA
ATOM      6  C   UNL     1     -15.085  -0.839  -6.254  0.00  0.00    +0.316 C 
ATOM      7  C   UNL     1     -14.821   0.252  -5.504  0.00  0.00    +0.018 A 
ATOM      8  C   UNL     1     -13.798   0.354  -4.460  0.00  0.00    +0.009 A 
ATOM      9  C   UNL     1     -13.772   1.440  -3.663  0.00  0.00    +0.000 A 
ATOM     10  C   UNL     1     -14.763   2.501  -3.784  0.00  0.00    +0.000 A 
ENDROOT
BRANCH   6  11
ATOM     11  O   UNL     1     -14.489  -2.068  -6.069  0.00  0.00    -0.361 OA
ATOM     12  H   UNL     1     -15.040  -2.592  -5.468  0.00  0.00    +0.213 HD
ENDBRANCH   6  11
BRANCH   3  13
ATOM     13  O   UNL     1     -16.686   2.731  -7.580  0.00  0.00    -0.342 OA
BRANCH  13  14
ATOM     14  C   UNL     1     -16.513   2.952  -9.156  0.00  0.00    +0.119 C 
ATOM     15  C   UNL     1     -17.986   2.946  -9.784  0.00  0.00    +0.038 C 
BRANCH  14  16
ATOM     16  C   UNL     1     -16.452   4.450  -9.131  0.00  0.00    +0.031 C 
BRANCH  16  17
ATOM     17  C   UNL     1     -16.499   4.608 -10.740  0.00  0.00    +0.002 C 
BRANCH  17  18
ATOM     18  C   UNL     1     -15.110   4.690 -11.389  0.00  0.00    +0.000 C 
BRANCH  18  19
ATOM     19  C   UNL     1     -15.178   4.393 -12.890  0.00  0.00    -0.000 C 
BRANCH  19  20
ATOM     20  C   UNL     1     -16.583   3.963 -13.312  0.00  0.00    -0.003 C 
ATOM     21  C   UNL     1     -16.575   2.577 -13.937  0.00  0.00    +0.004 C 
ENDBRANCH  19  20
ENDBRANCH  18  19
ENDBRANCH  17  18
ENDBRANCH  16  17
ENDBRANCH  14  16
ENDBRANCH  13  14
ENDBRANCH   3  13
TORSDOF 8
ENDMDL
MODEL 6
REMARK VINA RESULT:      -5.5      1.952      4.731
REMARK  Name = min_compound977.pdb
REMARK  10 active torsions:
REMARK  status: ('A' for Active; 'I' for Inactive)
REMARK    1  A    between atoms: _7  and  _9
REMARK    2  A    between atoms: _9  and  _10
REMARK    3  A    between atoms: _10  and  _11
REMARK    4  A    between atoms: _10  and  _12
REMARK    5  A    between atoms: _12  and  _13
REMARK    6  A    between atoms: _13  and  _14
REMARK    7  A    between atoms: _14  and  _15
REMARK    8  A    between atoms: _15  and  _16
REMARK    9  A    between atoms: _16  and  _17
REMARK   10  A    between atoms: _18  and  _20
REMARK                            x       y       z     vdW  Elec       q    Type
REMARK                         _______ _______ _______ _____ _____    ______ ____
ROOT
ATOM      1  C   UNL     1     -15.585  -0.966  -6.613  0.00  0.00    +0.009 A 
ATOM      2  C   UNL     1     -16.788  -0.194  -6.934  0.00  0.00    +0.019 A 
ATOM      3  C   UNL     1     -18.041  -0.495  -6.514  0.00  0.00    +0.319 C 
ATOM      4  O   UNL     1     -19.088   0.373  -6.836  0.00  0.00    -0.195 OA
ATOM      5  O   UNL     1     -18.898   0.846  -8.220  0.00  0.00    -0.195 OA
ATOM      6  C   UNL     1     -17.710   1.577  -8.273  0.00  0.00    +0.316 C 
ATOM      7  C   UNL     1     -16.611   1.075  -7.671  0.00  0.00    +0.018 A 
ATOM      8  C   UNL     1     -15.284   1.697  -7.640  0.00  0.00    +0.009 A 
ATOM      9  C   UNL     1     -14.235   0.995  -7.168  0.00  0.00    +0.000 A 
ATOM     10  C   UNL     1     -14.377  -0.386  -6.725  0.00  0.00    +0.000 A 
ENDROOT
BRANCH   6  11
ATOM     11  O   UNL     1     -17.717   2.717  -9.047  0.00  0.00    -0.361 OA
ATOM     12  H   UNL     1     -18.054   2.492  -9.928  0.00  0.00    +0.213 HD
ENDBRANCH   6  11
BRANCH   3  13
ATOM     13  O   UNL     1     -18.330  -1.509  -5.598  0.00  0.00    -0.342 OA
BRANCH  13  14
ATOM     14  C   UNL     1     -18.823  -1.042  -4.148  0.00  0.00    +0.119 C 
ATOM     15  C   UNL     1     -19.729  -2.228  -3.568  0.00  0.00    +0.038 C 
BRANCH  14  16
ATOM     16  C   UNL     1     -17.615  -1.493  -3.382  0.00  0.00    +0.031 C 
BRANCH  16  17
ATOM     17  C   UNL     1     -17.178  -0.001  -2.939  0.00  0.00    +0.002 C 
BRANCH  17  18
ATOM     18  C   UNL     1     -15.763   0.384  -3.393  0.00  0.00    +0.000 C 
BRANCH  18  19
ATOM     19  C   UNL     1     -15.701   1.847  -3.843  0.00  0.00    -0.000 C 
BRANCH  19  20
ATOM     20  C   UNL     1     -14.278   2.398  -3.761  0.00  0.00    -0.003 C 
ATOM     21  C   UNL     1     -13.287   1.320  -3.352  0.00  0.00    +0.004 C 
ENDBRANCH  19  20
ENDBRANCH  18  19
ENDBRANCH  17  18
ENDBRANCH  16  17
ENDBRANCH  14  16
ENDBRANCH  13  14
ENDBRANCH   3  13
TORSDOF 8
ENDMDL
MODEL 7
REMARK VINA RESULT:      -5.4     12.647     14.622
REMARK  Name = min_compound977.pdb
REMARK  10 active torsions:
REMARK  status: ('A' for Active; 'I' for Inactive)
REMARK    1  A    between atoms: _7  and  _9
REMARK    2  A    between atoms: _9  and  _10
REMARK    3  A    between atoms: _10  and  _11
REMARK    4  A    between atoms: _10  and  _12
REMARK    5  A    between atoms: _12  and  _13
REMARK    6  A    between atoms: _13  and  _14
REMARK    7  A    between atoms: _14  and  _15
REMARK    8  A    between atoms: _15  and  _16
REMARK    9  A    between atoms: _16  and  _17
REMARK   10  A    between atoms: _18  and  _20
REMARK                            x       y       z     vdW  Elec       q    Type
REMARK                         _______ _______ _______ _____ _____    ______ ____
ROOT
ATOM      1  C   UNL     1     -11.191   0.159 -17.921  0.00  0.00    +0.009 A 
ATOM      2  C   UNL     1     -11.471   1.535 -17.505  0.00  0.00    +0.019 A 
ATOM      3  C   UNL     1     -12.430   2.330 -18.039  0.00  0.00    +0.319 C 
ATOM      4  O   UNL     1     -12.635   3.601 -17.493  0.00  0.00    -0.195 OA
ATOM      5  O   UNL     1     -11.322   4.192 -17.172  0.00  0.00    -0.195 OA
ATOM      6  C   UNL     1     -10.716   3.403 -16.193  0.00  0.00    +0.316 C 
ATOM      7  C   UNL     1     -10.733   2.061 -16.338  0.00  0.00    +0.018 A 
ATOM      8  C   UNL     1     -10.136   1.087 -15.420  0.00  0.00    +0.009 A 
ATOM      9  C   UNL     1     -10.063  -0.208 -15.785  0.00  0.00    +0.000 A 
ATOM     10  C   UNL     1     -10.524  -0.662 -17.090  0.00  0.00    +0.000 A 
ENDROOT
BRANCH   6  11
ATOM     11  O   UNL     1     -10.032   4.066 -15.197  0.00  0.00    -0.361 OA
ATOM     12  H   UNL     1      -9.512   3.420 -14.695  0.00  0.00    +0.213 HD
ENDBRANCH   6  11
BRANCH   3  13
ATOM     13  O   UNL     1     -13.378   1.888 -18.965  0.00  0.00    -0.342 OA
BRANCH  13  14
ATOM     14  C   UNL     1     -13.240   2.457 -20.455  0.00  0.00    +0.119 C 
ATOM     15  C   UNL     1     -14.250   1.610 -21.365  0.00  0.00    +0.038 C 
BRANCH  14  16
ATOM     16  C   UNL     1     -14.209   3.594 -20.314  0.00  0.00    +0.031 C 
BRANCH  16  17
ATOM     17  C   UNL     1     -13.230   4.683 -20.999  0.00  0.00    +0.002 C 
BRANCH  17  18
ATOM     18  C   UNL     1     -13.283   6.064 -20.329  0.00  0.00    +0.000 C 
BRANCH  18  19
ATOM     19  C   UNL     1     -11.881   6.560 -19.964  0.00  0.00    -0.000 C 
BRANCH  19  20
ATOM     20  C   UNL     1     -11.870   7.255 -18.604  0.00  0.00    -0.003 C 
ATOM     21  C   UNL     1     -13.222   7.153 -17.915  0.00  0.00    +0.004 C 
ENDBRANCH  19  20
ENDBRANCH  18  19
ENDBRANCH  17  18
ENDBRANCH  16  17
ENDBRANCH  14  16
ENDBRANCH  13  14
ENDBRANCH   3  13
TORSDOF 8
ENDMDL
MODEL 8
REMARK VINA RESULT:      -5.2      4.066      7.058
REMARK  Name = min_compound977.pdb
REMARK  10 active torsions:
REMARK  status: ('A' for Active; 'I' for Inactive)
REMARK    1  A    between atoms: _7  and  _9
REMARK    2  A    between atoms: _9  and  _10
REMARK    3  A    between atoms: _10  and  _11
REMARK    4  A    between atoms: _10  and  _12
REMARK    5  A    between atoms: _12  and  _13
REMARK    6  A    between atoms: _13  and  _14
REMARK    7  A    between atoms: _14  and  _15
REMARK    8  A    between atoms: _15  and  _16
REMARK    9  A    between atoms: _16  and  _17
REMARK   10  A    between atoms: _18  and  _20
REMARK                            x       y       z     vdW  Elec       q    Type
REMARK                         _______ _______ _______ _____ _____    ______ ____
ROOT
ATOM      1  C   UNL     1     -17.057   2.861 -11.596  0.00  0.00    +0.009 A 
ATOM      2  C   UNL     1     -16.877   3.628 -10.361  0.00  0.00    +0.019 A 
ATOM      3  C   UNL     1     -16.758   3.091  -9.122  0.00  0.00    +0.319 C 
ATOM      4  O   UNL     1     -16.517   3.940  -8.038  0.00  0.00    -0.195 OA
ATOM      5  O   UNL     1     -17.328   5.160  -8.206  0.00  0.00    -0.195 OA
ATOM      6  C   UNL     1     -16.898   5.814  -9.362  0.00  0.00    +0.316 C 
ATOM      7  C   UNL     1     -16.694   5.089 -10.482  0.00  0.00    +0.018 A 
ATOM      8  C   UNL     1     -16.259   5.611 -11.780  0.00  0.00    +0.009 A 
ATOM      9  C   UNL     1     -16.279   4.804 -12.859  0.00  0.00    +0.000 A 
ATOM     10  C   UNL     1     -16.764   3.432 -12.778  0.00  0.00    +0.000 A 
ENDROOT
BRANCH   6  11
ATOM     11  O   UNL     1     -16.827   7.190  -9.306  0.00  0.00    -0.361 OA
ATOM     12  H   UNL     1     -16.481   7.447  -8.437  0.00  0.00    +0.213 HD
ENDBRANCH   6  11
BRANCH   3  13
ATOM     13  O   UNL     1     -16.648   1.720  -8.878  0.00  0.00    -0.342 OA
BRANCH  13  14
ATOM     14  C   UNL     1     -16.567   1.272  -7.342  0.00  0.00    +0.119 C 
ATOM     15  C   UNL     1     -17.860   0.371  -7.059  0.00  0.00    +0.038 C 
BRANCH  14  16
ATOM     16  C   UNL     1     -15.687   0.073  -7.541  0.00  0.00    +0.031 C 
BRANCH  16  17
ATOM     17  C   UNL     1     -14.472   0.655  -6.648  0.00  0.00    +0.002 C 
BRANCH  17  18
ATOM     18  C   UNL     1     -14.108  -0.235  -5.452  0.00  0.00    +0.000 C 
BRANCH  18  19
ATOM     19  C   UNL     1     -14.544   0.403  -4.129  0.00  0.00    -0.000 C 
BRANCH  19  20
ATOM     20  C   UNL     1     -13.392   1.153  -3.462  0.00  0.00    -0.003 C 
ATOM     21  C   UNL     1     -13.569   2.659  -3.576  0.00  0.00    +0.004 C 
ENDBRANCH  19  20
ENDBRANCH  18  19
ENDBRANCH  17  18
ENDBRANCH  16  17
ENDBRANCH  14  16
ENDBRANCH  13  14
ENDBRANCH   3  13
TORSDOF 8
ENDMDL
MODEL 9
REMARK VINA RESULT:      -5.1      9.781     12.172
REMARK  Name = min_compound977.pdb
REMARK  10 active torsions:
REMARK  status: ('A' for Active; 'I' for Inactive)
REMARK    1  A    between atoms: _7  and  _9
REMARK    2  A    between atoms: _9  and  _10
REMARK    3  A    between atoms: _10  and  _11
REMARK    4  A    between atoms: _10  and  _12
REMARK    5  A    between atoms: _12  and  _13
REMARK    6  A    between atoms: _13  and  _14
REMARK    7  A    between atoms: _14  and  _15
REMARK    8  A    between atoms: _15  and  _16
REMARK    9  A    between atoms: _16  and  _17
REMARK   10  A    between atoms: _18  and  _20
REMARK                            x       y       z     vdW  Elec       q    Type
REMARK                         _______ _______ _______ _____ _____    ______ ____
ROOT
ATOM      1  C   UNL     1     -12.497   2.512 -16.145  0.00  0.00    +0.009 A 
ATOM      2  C   UNL     1     -12.947   3.852 -16.529  0.00  0.00    +0.019 A 
ATOM      3  C   UNL     1     -14.232   4.282 -16.494  0.00  0.00    +0.319 C 
ATOM      4  O   UNL     1     -14.508   5.613 -16.820  0.00  0.00    -0.195 OA
ATOM      5  O   UNL     1     -13.661   6.003 -17.963  0.00  0.00    -0.195 OA
ATOM      6  C   UNL     1     -12.326   5.933 -17.561  0.00  0.00    +0.316 C 
ATOM      7  C   UNL     1     -11.912   4.851 -16.869  0.00  0.00    +0.018 A 
ATOM      8  C   UNL     1     -10.550   4.606 -16.384  0.00  0.00    +0.009 A 
ATOM      9  C   UNL     1     -10.236   3.399 -15.874  0.00  0.00    +0.000 A 
ATOM     10  C   UNL     1     -11.205   2.312 -15.832  0.00  0.00    +0.000 A 
ENDROOT
BRANCH   6  11
ATOM     11  O   UNL     1     -11.490   6.933 -18.009  0.00  0.00    -0.361 OA
ATOM     12  H   UNL     1     -11.248   6.745 -18.929  0.00  0.00    +0.213 HD
ENDBRANCH   6  11
BRANCH   3  13
ATOM     13  O   UNL     1     -15.283   3.542 -15.948  0.00  0.00    -0.342 OA
BRANCH  13  14
ATOM     14  C   UNL     1     -16.007   4.169 -14.665  0.00  0.00    +0.119 C 
ATOM     15  C   UNL     1     -16.798   2.972 -13.954  0.00  0.00    +0.038 C 
BRANCH  14  16
ATOM     16  C   UNL     1     -14.847   4.059 -13.720  0.00  0.00    +0.031 C 
BRANCH  16  17
ATOM     17  C   UNL     1     -15.463   5.090 -12.638  0.00  0.00    +0.002 C 
BRANCH  17  18
ATOM     18  C   UNL     1     -14.956   4.856 -11.208  0.00  0.00    +0.000 C 
BRANCH  18  19
ATOM     19  C   UNL     1     -16.118   4.663 -10.230  0.00  0.00    -0.000 C 
BRANCH  19  20
ATOM     20  C   UNL     1     -16.633   3.224 -10.247  0.00  0.00    -0.003 C 
ATOM     21  C   UNL     1     -18.152   3.177 -10.238  0.00  0.00    +0.004 C 
ENDBRANCH  19  20
ENDBRANCH  18  19
ENDBRANCH  17  18
ENDBRANCH  16  17
ENDBRANCH  14  16
ENDBRANCH  13  14
ENDBRANCH   3  13
TORSDOF 8
ENDMDL
