MODEL 1
REMARK VINA RESULT:      -8.0      0.000      0.000
REMARK  Name = min_compound991.pdb
REMARK  6 active torsions:
REMARK  status: ('A' for Active; 'I' for Inactive)
REMARK    1  A    between atoms: _1  and  _7
REMARK    2  A    between atoms: _1  and  _20
REMARK    3  A    between atoms: _8  and  _20
REMARK    4  A    between atoms: _10  and  _22
REMARK    5  A    between atoms: _15  and  _24
REMARK    6  A    between atoms: _22  and  _24
REMARK                            x       y       z     vdW  Elec       q    Type
REMARK                         _______ _______ _______ _____ _____    ______ ____
ROOT
ATOM      1  C   UNL     1     -13.996   5.129 -17.537  0.00  0.00    +0.073 A 
ATOM      2  C   UNL     1     -14.214   6.268 -18.321  0.00  0.00    +0.016 A 
ATOM      3  C   UNL     1     -13.149   7.128 -18.604  0.00  0.00    +0.001 A 
ATOM      4  C   UNL     1     -11.872   6.858 -18.106  0.00  0.00    +0.001 A 
ATOM      5  C   UNL     1     -11.649   5.716 -17.334  0.00  0.00    +0.016 A 
ATOM      6  C   UNL     1     -12.715   4.854 -17.055  0.00  0.00    +0.073 A 
ENDROOT
BRANCH   6   7
ATOM      7  C   UNL     1     -12.456   3.566 -16.413  0.00  0.00    +0.340 C 
ATOM      8  O   UNL     1     -12.578   3.411 -15.209  0.00  0.00    -0.245 OA
BRANCH   7   9
ATOM      9  O   UNL     1     -12.115   2.608 -17.325  0.00  0.00    -0.458 OA
BRANCH   9  10
ATOM     10  C   UNL     1     -11.471   1.469 -16.604  0.00  0.00    +0.177 C 
ATOM     11  C   UNL     1     -11.712  -0.018 -17.113  0.00  0.00    +0.044 C 
ATOM     12  C   UNL     1     -10.912  -1.003 -16.036  0.00  0.00    +0.004 C 
ATOM     13  C   UNL     1      -9.492  -0.782 -16.468  0.00  0.00    +0.000 C 
ATOM     14  C   UNL     1      -9.334   0.275 -17.493  0.00  0.00    +0.004 C 
ATOM     15  C   UNL     1     -10.052   1.691 -17.036  0.00  0.00    +0.044 C 
ENDBRANCH   9  10
ENDBRANCH   7   9
ENDBRANCH   6   7
BRANCH   1  16
ATOM     16  C   UNL     1     -15.160   4.302 -17.157  0.00  0.00    +0.340 C 
ATOM     17  O   UNL     1     -15.567   3.333 -17.766  0.00  0.00    -0.245 OA
BRANCH  16  18
ATOM     18  O   UNL     1     -15.812   5.009 -16.196  0.00  0.00    -0.458 OA
BRANCH  18  19
ATOM     19  C   UNL     1     -15.981   4.442 -14.818  0.00  0.00    +0.177 C 
ATOM     20  C   UNL     1     -16.879   3.261 -14.597  0.00  0.00    +0.044 C 
ATOM     21  C   UNL     1     -17.048   2.694 -13.219  0.00  0.00    +0.004 C 
ATOM     22  C   UNL     1     -16.779   3.721 -12.051  0.00  0.00    +0.000 C 
ATOM     23  C   UNL     1     -15.420   4.489 -12.281  0.00  0.00    +0.004 C 
ATOM     24  C   UNL     1     -15.251   5.056 -13.660  0.00  0.00    +0.044 C 
ENDBRANCH  18  19
ENDBRANCH  16  18
ENDBRANCH   1  16
TORSDOF 6
ENDMDL
MODEL 2
REMARK VINA RESULT:      -7.9      0.993      6.006
REMARK  Name = min_compound991.pdb
REMARK  6 active torsions:
REMARK  status: ('A' for Active; 'I' for Inactive)
REMARK    1  A    between atoms: _1  and  _7
REMARK    2  A    between atoms: _1  and  _20
REMARK    3  A    between atoms: _8  and  _20
REMARK    4  A    between atoms: _10  and  _22
REMARK    5  A    between atoms: _15  and  _24
REMARK    6  A    between atoms: _22  and  _24
REMARK                            x       y       z     vdW  Elec       q    Type
REMARK                         _______ _______ _______ _____ _____    ______ ____
ROOT
ATOM      1  C   UNL     1     -12.297   4.994 -17.030  0.00  0.00    +0.073 A 
ATOM      2  C   UNL     1     -11.700   6.139 -17.570  0.00  0.00    +0.016 A 
ATOM      3  C   UNL     1     -12.499   7.135 -18.139  0.00  0.00    +0.001 A 
ATOM      4  C   UNL     1     -13.889   6.992 -18.173  0.00  0.00    +0.001 A 
ATOM      5  C   UNL     1     -14.489   5.857 -17.623  0.00  0.00    +0.016 A 
ATOM      6  C   UNL     1     -13.687   4.862 -17.051  0.00  0.00    +0.073 A 
ENDROOT
BRANCH   6   7
ATOM      7  C   UNL     1     -14.311   3.768 -16.309  0.00  0.00    +0.340 C 
ATOM      8  O   UNL     1     -14.749   2.777 -16.871  0.00  0.00    -0.245 OA
BRANCH   7   9
ATOM      9  O   UNL     1     -14.292   3.997 -14.963  0.00  0.00    -0.458 OA
BRANCH   9  10
ATOM     10  C   UNL     1     -15.699   4.049 -14.466  0.00  0.00    +0.177 C 
ATOM     11  C   UNL     1     -16.429   2.702 -14.034  0.00  0.00    +0.044 C 
ATOM     12  C   UNL     1     -17.979   3.139 -13.616  0.00  0.00    +0.004 C 
ATOM     13  C   UNL     1     -17.732   3.770 -12.278  0.00  0.00    +0.000 C 
ATOM     14  C   UNL     1     -16.299   3.912 -11.936  0.00  0.00    +0.004 C 
ATOM     15  C   UNL     1     -15.452   4.680 -13.128  0.00  0.00    +0.044 C 
ENDBRANCH   9  10
ENDBRANCH   7   9
ENDBRANCH   6   7
BRANCH   1  16
ATOM     16  C   UNL     1     -11.424   3.907 -16.543  0.00  0.00    +0.340 C 
ATOM     17  O   UNL     1     -10.684   3.974 -15.582  0.00  0.00    -0.245 OA
BRANCH  16  18
ATOM     18  O   UNL     1     -11.414   2.975 -17.532  0.00  0.00    -0.458 OA
BRANCH  18  19
ATOM     19  C   UNL     1     -11.029   1.556 -17.236  0.00  0.00    +0.177 C 
ATOM     20  C   UNL     1     -12.038   0.611 -16.654  0.00  0.00    +0.044 C 
ATOM     21  C   UNL     1     -11.653  -0.808 -16.358  0.00  0.00    +0.004 C 
ATOM     22  C   UNL     1     -10.112  -1.028 -16.099  0.00  0.00    +0.000 C 
ATOM     23  C   UNL     1      -9.250  -0.337 -17.226  0.00  0.00    +0.004 C 
ATOM     24  C   UNL     1      -9.635   1.082 -17.522  0.00  0.00    +0.044 C 
ENDBRANCH  18  19
ENDBRANCH  16  18
ENDBRANCH   1  16
TORSDOF 6
ENDMDL
MODEL 3
REMARK VINA RESULT:      -7.7      1.208      1.894
REMARK  Name = min_compound991.pdb
REMARK  6 active torsions:
REMARK  status: ('A' for Active; 'I' for Inactive)
REMARK    1  A    between atoms: _1  and  _7
REMARK    2  A    between atoms: _1  and  _20
REMARK    3  A    between atoms: _8  and  _20
REMARK    4  A    between atoms: _10  and  _22
REMARK    5  A    between atoms: _15  and  _24
REMARK    6  A    between atoms: _22  and  _24
REMARK                            x       y       z     vdW  Elec       q    Type
REMARK                         _______ _______ _______ _____ _____    ______ ____
ROOT
ATOM      1  C   UNL     1     -13.480   4.825 -16.815  0.00  0.00    +0.073 A 
ATOM      2  C   UNL     1     -14.549   5.662 -17.157  0.00  0.00    +0.016 A 
ATOM      3  C   UNL     1     -14.299   6.887 -17.781  0.00  0.00    +0.001 A 
ATOM      4  C   UNL     1     -12.988   7.281 -18.063  0.00  0.00    +0.001 A 
ATOM      5  C   UNL     1     -11.920   6.443 -17.735  0.00  0.00    +0.016 A 
ATOM      6  C   UNL     1     -12.173   5.215 -17.113  0.00  0.00    +0.073 A 
ENDROOT
BRANCH   6   7
ATOM      7  C   UNL     1     -11.085   4.254 -16.940  0.00  0.00    +0.340 C 
ATOM      8  O   UNL     1     -10.250   4.379 -16.059  0.00  0.00    -0.245 OA
BRANCH   7   9
ATOM      9  O   UNL     1     -11.169   3.230 -17.840  0.00  0.00    -0.458 OA
BRANCH   9  10
ATOM     10  C   UNL     1     -10.541   2.015 -17.241  0.00  0.00    +0.177 C 
ATOM     11  C   UNL     1     -10.863   1.628 -15.731  0.00  0.00    +0.044 C 
ATOM     12  C   UNL     1      -9.940   0.283 -15.399  0.00  0.00    +0.004 C 
ATOM     13  C   UNL     1     -10.718  -0.768 -16.134  0.00  0.00    +0.000 C 
ATOM     14  C   UNL     1     -11.827  -0.232 -16.954  0.00  0.00    +0.004 C 
ATOM     15  C   UNL     1     -11.319   0.963 -17.975  0.00  0.00    +0.044 C 
ENDBRANCH   9  10
ENDBRANCH   7   9
ENDBRANCH   6   7
BRANCH   1  16
ATOM     16  C   UNL     1     -13.765   3.593 -16.053  0.00  0.00    +0.340 C 
ATOM     17  O   UNL     1     -14.184   2.553 -16.522  0.00  0.00    -0.245 OA
BRANCH  16  18
ATOM     18  O   UNL     1     -13.740   3.959 -14.744  0.00  0.00    -0.458 OA
BRANCH  18  19
ATOM     19  C   UNL     1     -14.979   3.862 -13.903  0.00  0.00    +0.177 C 
ATOM     20  C   UNL     1     -15.084   4.646 -12.629  0.00  0.00    +0.044 C 
ATOM     21  C   UNL     1     -16.323   4.549 -11.788  0.00  0.00    +0.004 C 
ATOM     22  C   UNL     1     -17.132   3.206 -11.968  0.00  0.00    +0.000 C 
ATOM     23  C   UNL     1     -17.351   2.884 -13.497  0.00  0.00    +0.004 C 
ATOM     24  C   UNL     1     -16.113   2.981 -14.338  0.00  0.00    +0.044 C 
ENDBRANCH  18  19
ENDBRANCH  16  18
ENDBRANCH   1  16
TORSDOF 6
ENDMDL
MODEL 4
REMARK VINA RESULT:      -7.4      2.338      5.573
REMARK  Name = min_compound991.pdb
REMARK  6 active torsions:
REMARK  status: ('A' for Active; 'I' for Inactive)
REMARK    1  A    between atoms: _1  and  _7
REMARK    2  A    between atoms: _1  and  _20
REMARK    3  A    between atoms: _8  and  _20
REMARK    4  A    between atoms: _10  and  _22
REMARK    5  A    between atoms: _15  and  _24
REMARK    6  A    between atoms: _22  and  _24
REMARK                            x       y       z     vdW  Elec       q    Type
REMARK                         _______ _______ _______ _____ _____    ______ ____
ROOT
ATOM      1  C   UNL     1     -12.874   5.271 -17.055  0.00  0.00    +0.073 A 
ATOM      2  C   UNL     1     -14.207   5.637 -16.838  0.00  0.00    +0.016 A 
ATOM      3  C   UNL     1     -14.996   4.893 -15.956  0.00  0.00    +0.001 A 
ATOM      4  C   UNL     1     -14.460   3.786 -15.293  0.00  0.00    +0.001 A 
ATOM      5  C   UNL     1     -13.127   3.426 -15.497  0.00  0.00    +0.016 A 
ATOM      6  C   UNL     1     -12.338   4.174 -16.378  0.00  0.00    +0.073 A 
ENDROOT
BRANCH   6   7
ATOM      7  C   UNL     1     -10.900   3.923 -16.453  0.00  0.00    +0.340 C 
ATOM      8  O   UNL     1     -10.138   4.271 -15.565  0.00  0.00    -0.245 OA
BRANCH   7   9
ATOM      9  O   UNL     1     -10.566   3.239 -17.587  0.00  0.00    -0.458 OA
BRANCH   9  10
ATOM     10  C   UNL     1     -10.215   1.836 -17.213  0.00  0.00    +0.177 C 
ATOM     11  C   UNL     1     -10.412   1.351 -15.711  0.00  0.00    +0.044 C 
ATOM     12  C   UNL     1      -9.853  -0.216 -15.661  0.00  0.00    +0.004 C 
ATOM     13  C   UNL     1     -10.985  -0.929 -16.340  0.00  0.00    +0.000 C 
ATOM     14  C   UNL     1     -12.011  -0.026 -16.907  0.00  0.00    +0.004 C 
ATOM     15  C   UNL     1     -11.347   1.123 -17.892  0.00  0.00    +0.044 C 
ENDBRANCH   9  10
ENDBRANCH   7   9
ENDBRANCH   6   7
BRANCH   1  16
ATOM     16  C   UNL     1     -12.100   6.002 -18.078  0.00  0.00    +0.340 C 
ATOM     17  O   UNL     1     -11.577   7.089 -17.926  0.00  0.00    -0.245 OA
BRANCH  16  18
ATOM     18  O   UNL     1     -12.346   5.360 -19.251  0.00  0.00    -0.458 OA
BRANCH  18  19
ATOM     19  C   UNL     1     -12.507   6.136 -20.524  0.00  0.00    +0.177 C 
ATOM     20  C   UNL     1     -11.304   6.471 -21.355  0.00  0.00    +0.044 C 
ATOM     21  C   UNL     1     -11.464   7.247 -22.628  0.00  0.00    +0.004 C 
ATOM     22  C   UNL     1     -12.749   8.162 -22.681  0.00  0.00    +0.000 C 
ATOM     23  C   UNL     1     -14.031   7.354 -22.240  0.00  0.00    +0.004 C 
ATOM     24  C   UNL     1     -13.870   6.578 -20.967  0.00  0.00    +0.044 C 
ENDBRANCH  18  19
ENDBRANCH  16  18
ENDBRANCH   1  16
TORSDOF 6
ENDMDL
MODEL 5
REMARK VINA RESULT:      -7.3      0.938      5.974
REMARK  Name = min_compound991.pdb
REMARK  6 active torsions:
REMARK  status: ('A' for Active; 'I' for Inactive)
REMARK    1  A    between atoms: _1  and  _7
REMARK    2  A    between atoms: _1  and  _20
REMARK    3  A    between atoms: _8  and  _20
REMARK    4  A    between atoms: _10  and  _22
REMARK    5  A    between atoms: _15  and  _24
REMARK    6  A    between atoms: _22  and  _24
REMARK                            x       y       z     vdW  Elec       q    Type
REMARK                         _______ _______ _______ _____ _____    ______ ____
ROOT
ATOM      1  C   UNL     1     -12.976   4.814 -17.920  0.00  0.00    +0.073 A 
ATOM      2  C   UNL     1     -12.062   5.785 -18.347  0.00  0.00    +0.016 A 
ATOM      3  C   UNL     1     -12.395   7.139 -18.254  0.00  0.00    +0.001 A 
ATOM      4  C   UNL     1     -13.636   7.527 -17.740  0.00  0.00    +0.001 A 
ATOM      5  C   UNL     1     -14.544   6.562 -17.302  0.00  0.00    +0.016 A 
ATOM      6  C   UNL     1     -14.208   5.207 -17.393  0.00  0.00    +0.073 A 
ENDROOT
BRANCH   6   7
ATOM      7  C   UNL     1     -15.068   4.204 -16.766  0.00  0.00    +0.340 C 
ATOM      8  O   UNL     1     -15.954   3.638 -17.385  0.00  0.00    -0.245 OA
BRANCH   7   9
ATOM      9  O   UNL     1     -14.717   3.983 -15.465  0.00  0.00    -0.458 OA
BRANCH   9  10
ATOM     10  C   UNL     1     -15.950   4.029 -14.623  0.00  0.00    +0.177 C 
ATOM     11  C   UNL     1     -16.457   2.705 -13.900  0.00  0.00    +0.044 C 
ATOM     12  C   UNL     1     -17.873   3.121 -13.130  0.00  0.00    +0.004 C 
ATOM     13  C   UNL     1     -17.330   3.892 -11.963  0.00  0.00    +0.000 C 
ATOM     14  C   UNL     1     -15.870   4.123 -12.022  0.00  0.00    +0.004 C 
ATOM     15  C   UNL     1     -15.408   4.800 -13.456  0.00  0.00    +0.044 C 
ENDBRANCH   9  10
ENDBRANCH   7   9
ENDBRANCH   6   7
BRANCH   1  16
ATOM     16  C   UNL     1     -12.646   3.391 -18.138  0.00  0.00    +0.340 C 
ATOM     17  O   UNL     1     -13.091   2.691 -19.026  0.00  0.00    -0.245 OA
BRANCH  16  18
ATOM     18  O   UNL     1     -12.003   2.988 -17.010  0.00  0.00    -0.458 OA
BRANCH  18  19
ATOM     19  C   UNL     1     -11.313   1.657 -16.963  0.00  0.00    +0.177 C 
ATOM     20  C   UNL     1      -9.887   1.535 -17.412  0.00  0.00    +0.044 C 
ATOM     21  C   UNL     1      -9.197   0.204 -17.365  0.00  0.00    +0.004 C 
ATOM     22  C   UNL     1     -10.166  -1.039 -17.441  0.00  0.00    +0.000 C 
ATOM     23  C   UNL     1     -11.359  -0.883 -16.421  0.00  0.00    +0.004 C 
ATOM     24  C   UNL     1     -12.049   0.448 -16.468  0.00  0.00    +0.044 C 
ENDBRANCH  18  19
ENDBRANCH  16  18
ENDBRANCH   1  16
TORSDOF 6
ENDMDL
MODEL 6
REMARK VINA RESULT:      -7.2      2.818      5.963
REMARK  Name = min_compound991.pdb
REMARK  6 active torsions:
REMARK  status: ('A' for Active; 'I' for Inactive)
REMARK    1  A    between atoms: _1  and  _7
REMARK    2  A    between atoms: _1  and  _20
REMARK    3  A    between atoms: _8  and  _20
REMARK    4  A    between atoms: _10  and  _22
REMARK    5  A    between atoms: _15  and  _24
REMARK    6  A    between atoms: _22  and  _24
REMARK                            x       y       z     vdW  Elec       q    Type
REMARK                         _______ _______ _______ _____ _____    ______ ____
ROOT
ATOM      1  C   UNL     1     -13.271   3.920 -16.617  0.00  0.00    +0.073 A 
ATOM      2  C   UNL     1     -13.281   3.573 -15.261  0.00  0.00    +0.016 A 
ATOM      3  C   UNL     1     -14.389   3.893 -14.472  0.00  0.00    +0.001 A 
ATOM      4  C   UNL     1     -15.484   4.558 -15.030  0.00  0.00    +0.001 A 
ATOM      5  C   UNL     1     -15.484   4.893 -16.385  0.00  0.00    +0.016 A 
ATOM      6  C   UNL     1     -14.374   4.569 -17.174  0.00  0.00    +0.073 A 
ENDROOT
BRANCH   6   7
ATOM      7  C   UNL     1     -14.443   4.744 -18.624  0.00  0.00    +0.340 C 
ATOM      8  O   UNL     1     -13.962   5.720 -19.178  0.00  0.00    -0.245 OA
BRANCH   7   9
ATOM      9  O   UNL     1     -15.056   3.686 -19.231  0.00  0.00    -0.458 OA
BRANCH   9  10
ATOM     10  C   UNL     1     -14.375   3.422 -20.534  0.00  0.00    +0.177 C 
ATOM     11  C   UNL     1     -13.886   1.948 -20.880  0.00  0.00    +0.044 C 
ATOM     12  C   UNL     1     -13.120   2.056 -22.353  0.00  0.00    +0.004 C 
ATOM     13  C   UNL     1     -14.303   2.184 -23.266  0.00  0.00    +0.000 C 
ATOM     14  C   UNL     1     -15.595   2.328 -22.558  0.00  0.00    +0.004 C 
ATOM     15  C   UNL     1     -15.558   3.550 -21.447  0.00  0.00    +0.044 C 
ENDBRANCH   9  10
ENDBRANCH   7   9
ENDBRANCH   6   7
BRANCH   1  16
ATOM     16  C   UNL     1     -12.042   3.676 -17.398  0.00  0.00    +0.340 C 
ATOM     17  O   UNL     1     -11.204   4.511 -17.675  0.00  0.00    -0.245 OA
BRANCH  16  18
ATOM     18  O   UNL     1     -12.201   2.447 -17.958  0.00  0.00    -0.458 OA
BRANCH  18  19
ATOM     19  C   UNL     1     -11.434   1.269 -17.436  0.00  0.00    +0.177 C 
ATOM     20  C   UNL     1     -12.154   0.155 -16.735  0.00  0.00    +0.044 C 
ATOM     21  C   UNL     1     -11.386  -1.023 -16.213  0.00  0.00    +0.004 C 
ATOM     22  C   UNL     1      -9.870  -0.727 -15.892  0.00  0.00    +0.000 C 
ATOM     23  C   UNL     1      -9.179   0.024 -17.095  0.00  0.00    +0.004 C 
ATOM     24  C   UNL     1      -9.946   1.203 -17.617  0.00  0.00    +0.044 C 
ENDBRANCH  18  19
ENDBRANCH  16  18
ENDBRANCH   1  16
TORSDOF 6
ENDMDL
MODEL 7
REMARK VINA RESULT:      -7.2      2.539      4.825
REMARK  Name = min_compound991.pdb
REMARK  6 active torsions:
REMARK  status: ('A' for Active; 'I' for Inactive)
REMARK    1  A    between atoms: _1  and  _7
REMARK    2  A    between atoms: _1  and  _20
REMARK    3  A    between atoms: _8  and  _20
REMARK    4  A    between atoms: _10  and  _22
REMARK    5  A    between atoms: _15  and  _24
REMARK    6  A    between atoms: _22  and  _24
REMARK                            x       y       z     vdW  Elec       q    Type
REMARK                         _______ _______ _______ _____ _____    ______ ____
ROOT
ATOM      1  C   UNL     1     -13.637   5.264 -17.033  0.00  0.00    +0.073 A 
ATOM      2  C   UNL     1     -14.865   5.707 -16.529  0.00  0.00    +0.016 A 
ATOM      3  C   UNL     1     -15.400   5.111 -15.384  0.00  0.00    +0.001 A 
ATOM      4  C   UNL     1     -14.717   4.074 -14.743  0.00  0.00    +0.001 A 
ATOM      5  C   UNL     1     -13.485   3.638 -15.235  0.00  0.00    +0.016 A 
ATOM      6  C   UNL     1     -12.949   4.239 -16.380  0.00  0.00    +0.073 A 
ENDROOT
BRANCH   6   7
ATOM      7  C   UNL     1     -11.582   3.922 -16.790  0.00  0.00    +0.340 C 
ATOM      8  O   UNL     1     -10.624   4.555 -16.378  0.00  0.00    -0.245 OA
BRANCH   7   9
ATOM      9  O   UNL     1     -11.544   2.843 -17.625  0.00  0.00    -0.458 OA
BRANCH   9  10
ATOM     10  C   UNL     1     -11.228   1.625 -16.819  0.00  0.00    +0.177 C 
ATOM     11  C   UNL     1     -11.779   0.209 -17.288  0.00  0.00    +0.044 C 
ATOM     12  C   UNL     1     -11.297  -0.876 -16.121  0.00  0.00    +0.004 C 
ATOM     13  C   UNL     1      -9.842  -1.011 -16.462  0.00  0.00    +0.000 C 
ATOM     14  C   UNL     1      -9.381  -0.075 -17.511  0.00  0.00    +0.004 C 
ATOM     15  C   UNL     1      -9.773   1.491 -17.159  0.00  0.00    +0.044 C 
ENDBRANCH   9  10
ENDBRANCH   7   9
ENDBRANCH   6   7
BRANCH   1  16
ATOM     16  C   UNL     1     -13.152   5.830 -18.308  0.00  0.00    +0.340 C 
ATOM     17  O   UNL     1     -12.251   6.637 -18.425  0.00  0.00    -0.245 OA
BRANCH  16  18
ATOM     18  O   UNL     1     -14.086   5.492 -19.236  0.00  0.00    -0.458 OA
BRANCH  18  19
ATOM     19  C   UNL     1     -13.822   4.383 -20.211  0.00  0.00    +0.177 C 
ATOM     20  C   UNL     1     -13.254   4.693 -21.564  0.00  0.00    +0.044 C 
ATOM     21  C   UNL     1     -12.990   3.585 -22.539  0.00  0.00    +0.004 C 
ATOM     22  C   UNL     1     -13.876   2.297 -22.323  0.00  0.00    +0.000 C 
ATOM     23  C   UNL     1     -13.862   1.855 -20.808  0.00  0.00    +0.004 C 
ATOM     24  C   UNL     1     -14.126   2.963 -19.833  0.00  0.00    +0.044 C 
ENDBRANCH  18  19
ENDBRANCH  16  18
ENDBRANCH   1  16
TORSDOF 6
ENDMDL
MODEL 8
REMARK VINA RESULT:      -7.2      2.481      6.402
REMARK  Name = min_compound991.pdb
REMARK  6 active torsions:
REMARK  status: ('A' for Active; 'I' for Inactive)
REMARK    1  A    between atoms: _1  and  _7
REMARK    2  A    between atoms: _1  and  _20
REMARK    3  A    between atoms: _8  and  _20
REMARK    4  A    between atoms: _10  and  _22
REMARK    5  A    between atoms: _15  and  _24
REMARK    6  A    between atoms: _22  and  _24
REMARK                            x       y       z     vdW  Elec       q    Type
REMARK                         _______ _______ _______ _____ _____    ______ ____
ROOT
ATOM      1  C   UNL     1     -12.873   4.535 -16.517  0.00  0.00    +0.073 A 
ATOM      2  C   UNL     1     -13.713   3.853 -15.630  0.00  0.00    +0.016 A 
ATOM      3  C   UNL     1     -14.990   4.353 -15.361  0.00  0.00    +0.001 A 
ATOM      4  C   UNL     1     -15.430   5.532 -15.972  0.00  0.00    +0.001 A 
ATOM      5  C   UNL     1     -14.599   6.208 -16.867  0.00  0.00    +0.016 A 
ATOM      6  C   UNL     1     -13.321   5.703 -17.137  0.00  0.00    +0.073 A 
ENDROOT
BRANCH   6   7
ATOM      7  C   UNL     1     -12.522   6.295 -18.208  0.00  0.00    +0.340 C 
ATOM      8  O   UNL     1     -11.833   7.285 -18.026  0.00  0.00    -0.245 OA
BRANCH   7   9
ATOM      9  O   UNL     1     -12.627   5.581 -19.368  0.00  0.00    -0.458 OA
BRANCH   9  10
ATOM     10  C   UNL     1     -12.594   6.532 -20.519  0.00  0.00    +0.177 C 
ATOM     11  C   UNL     1     -11.206   6.863 -21.224  0.00  0.00    +0.044 C 
ATOM     12  C   UNL     1     -11.549   7.997 -22.393  0.00  0.00    +0.004 C 
ATOM     13  C   UNL     1     -12.195   7.130 -23.432  0.00  0.00    +0.000 C 
ATOM     14  C   UNL     1     -12.423   5.735 -22.993  0.00  0.00    +0.004 C 
ATOM     15  C   UNL     1     -13.240   5.665 -21.558  0.00  0.00    +0.044 C 
ENDBRANCH   9  10
ENDBRANCH   7   9
ENDBRANCH   6   7
BRANCH   1  16
ATOM     16  C   UNL     1     -11.489   4.049 -16.691  0.00  0.00    +0.340 C 
ATOM     17  O   UNL     1     -10.489   4.602 -16.278  0.00  0.00    -0.245 OA
BRANCH  16  18
ATOM     18  O   UNL     1     -11.563   3.061 -17.622  0.00  0.00    -0.458 OA
BRANCH  18  19
ATOM     19  C   UNL     1     -11.174   1.656 -17.271  0.00  0.00    +0.177 C 
ATOM     20  C   UNL     1     -12.205   0.699 -16.753  0.00  0.00    +0.044 C 
ATOM     21  C   UNL     1     -11.816  -0.707 -16.403  0.00  0.00    +0.004 C 
ATOM     22  C   UNL     1     -10.296  -0.889 -16.021  0.00  0.00    +0.000 C 
ATOM     23  C   UNL     1      -9.362  -0.198 -17.088  0.00  0.00    +0.004 C 
ATOM     24  C   UNL     1      -9.752   1.208 -17.439  0.00  0.00    +0.044 C 
ENDBRANCH  18  19
ENDBRANCH  16  18
ENDBRANCH   1  16
TORSDOF 6
ENDMDL
MODEL 9
REMARK VINA RESULT:      -7.1     10.949     14.108
REMARK  Name = min_compound991.pdb
REMARK  6 active torsions:
REMARK  status: ('A' for Active; 'I' for Inactive)
REMARK    1  A    between atoms: _1  and  _7
REMARK    2  A    between atoms: _1  and  _20
REMARK    3  A    between atoms: _8  and  _20
REMARK    4  A    between atoms: _10  and  _22
REMARK    5  A    between atoms: _15  and  _24
REMARK    6  A    between atoms: _22  and  _24
REMARK                            x       y       z     vdW  Elec       q    Type
REMARK                         _______ _______ _______ _____ _____    ______ ____
ROOT
ATOM      1  C   UNL     1     -15.850   0.631  -3.503  0.00  0.00    +0.073 A 
ATOM      2  C   UNL     1     -15.899   1.999  -3.795  0.00  0.00    +0.016 A 
ATOM      3  C   UNL     1     -14.717   2.744  -3.829  0.00  0.00    +0.001 A 
ATOM      4  C   UNL     1     -13.488   2.130  -3.570  0.00  0.00    +0.001 A 
ATOM      5  C   UNL     1     -13.434   0.763  -3.291  0.00  0.00    +0.016 A 
ATOM      6  C   UNL     1     -14.619   0.019  -3.260  0.00  0.00    +0.073 A 
ENDROOT
BRANCH   6   7
ATOM      7  C   UNL     1     -14.555  -1.438  -3.157  0.00  0.00    +0.340 C 
ATOM      8  O   UNL     1     -14.443  -2.149  -4.143  0.00  0.00    -0.245 OA
BRANCH   7   9
ATOM      9  O   UNL     1     -14.596  -1.854  -1.857  0.00  0.00    -0.458 OA
BRANCH   9  10
ATOM     10  C   UNL     1     -14.495  -3.344  -1.828  0.00  0.00    +0.177 C 
ATOM     11  C   UNL     1     -13.172  -4.030  -1.273  0.00  0.00    +0.044 C 
ATOM     12  C   UNL     1     -13.394  -5.669  -1.464  0.00  0.00    +0.004 C 
ATOM     13  C   UNL     1     -14.350  -5.945  -0.341  0.00  0.00    +0.000 C 
ATOM     14  C   UNL     1     -14.832  -4.730   0.352  0.00  0.00    +0.004 C 
ATOM     15  C   UNL     1     -15.451  -3.621  -0.705  0.00  0.00    +0.044 C 
ENDBRANCH   9  10
ENDBRANCH   7   9
ENDBRANCH   6   7
BRANCH   1  16
ATOM     16  C   UNL     1     -17.122  -0.105  -3.358  0.00  0.00    +0.340 C 
ATOM     17  O   UNL     1     -17.815  -0.127  -2.360  0.00  0.00    -0.245 OA
BRANCH  16  18
ATOM     18  O   UNL     1     -17.184  -0.941  -4.427  0.00  0.00    -0.458 OA
BRANCH  18  19
ATOM     19  C   UNL     1     -17.300  -0.390  -5.818  0.00  0.00    +0.177 C 
ATOM     20  C   UNL     1     -16.300  -0.782  -6.865  0.00  0.00    +0.044 C 
ATOM     21  C   UNL     1     -16.416  -0.231  -8.255  0.00  0.00    +0.004 C 
ATOM     22  C   UNL     1     -17.173   1.151  -8.352  0.00  0.00    +0.000 C 
ATOM     23  C   UNL     1     -18.531   1.103  -7.551  0.00  0.00    +0.004 C 
ATOM     24  C   UNL     1     -18.416   0.552  -6.161  0.00  0.00    +0.044 C 
ENDBRANCH  18  19
ENDBRANCH  16  18
ENDBRANCH   1  16
TORSDOF 6
ENDMDL
