MODEL 1
REMARK VINA RESULT:      -8.6      0.000      0.000
REMARK  Name = min_compound925.pdb
REMARK  6 active torsions:
REMARK  status: ('A' for Active; 'I' for Inactive)
REMARK    1  A    between atoms: _1  and  _13
REMARK    2  A    between atoms: _6  and  _7
REMARK    3  A    between atoms: _9  and  _14
REMARK    4  A    between atoms: _12  and  _21
REMARK    5  A    between atoms: _14  and  _15
REMARK    6  A    between atoms: _21  and  _22
REMARK                            x       y       z     vdW  Elec       q    Type
REMARK                         _______ _______ _______ _____ _____    ______ ____
ROOT
ATOM      1  C   UNL     1     -12.896   3.977 -17.166  0.00  0.00    +0.127 C 
ATOM      2  N   UNL     1     -14.093   4.383 -16.328  0.00  0.00    -0.321 N 
ATOM      3  C   UNL     1     -14.676   5.668 -16.575  0.00  0.00    +0.076 C 
ATOM      4  C   UNL     1     -14.056   6.734 -17.131  0.00  0.00    -0.020 C 
ATOM      5  C   UNL     1     -12.653   6.506 -17.487  0.00  0.00    +0.004 C 
ATOM      6  C   UNL     1     -12.106   5.260 -17.475  0.00  0.00    +0.000 C 
ENDROOT
BRANCH   1  11
ATOM      7  C   UNL     1     -10.438   0.247 -16.173  0.00  0.00    -0.050 A 
ATOM      8  C   UNL     1      -9.631  -1.007 -16.008  0.00  0.00    +0.044 C 
ATOM      9  C   UNL     1     -11.343   0.342 -17.246  0.00  0.00    +0.004 A 
ATOM     10  C   UNL     1     -12.120   1.517 -17.521  0.00  0.00    +0.006 A 
ATOM     11  C   UNL     1     -12.076   2.692 -16.730  0.00  0.00    -0.023 A 
ATOM     12  C   UNL     1     -11.192   2.597 -15.640  0.00  0.00    +0.006 A 
ATOM     13  C   UNL     1     -10.389   1.415 -15.380  0.00  0.00    +0.004 A 
ENDBRANCH   1  11
BRANCH   2  14
ATOM     14  C   UNL     1     -14.888   3.247 -15.809  0.00  0.00    +0.140 C 
BRANCH  14  15
ATOM     15  C   UNL     1     -15.504   3.425 -14.433  0.00  0.00    -0.030 A 
ATOM     16  C   UNL     1     -16.670   2.724 -14.088  0.00  0.00    +0.005 A 
ATOM     17  C   UNL     1     -17.240   2.864 -12.821  0.00  0.00    +0.000 A 
ATOM     18  C   UNL     1     -16.650   3.710 -11.884  0.00  0.00    +0.000 A 
ATOM     19  C   UNL     1     -15.488   4.406 -12.209  0.00  0.00    +0.000 A 
ATOM     20  C   UNL     1     -14.910   4.258 -13.472  0.00  0.00    +0.005 A 
ENDBRANCH  14  15
ENDBRANCH   2  14
BRANCH   4  21
ATOM     21  C   UNL     1     -14.755   8.047 -17.323  0.00  0.00    +0.114 C 
BRANCH  21  22
ATOM     22  N   UNL     1     -15.455   9.360 -17.515  0.00  0.00    -0.326 NA
ATOM     23  H   UNL     1     -16.102   9.289 -18.301  0.00  0.00    +0.119 HD
ATOM     24  H   UNL     1     -15.973   9.596 -16.669  0.00  0.00    +0.119 HD
ENDBRANCH  21  22
ENDBRANCH   4  21
TORSDOF 5
ENDMDL
MODEL 2
REMARK VINA RESULT:      -7.9      1.746      5.523
REMARK  Name = min_compound925.pdb
REMARK  6 active torsions:
REMARK  status: ('A' for Active; 'I' for Inactive)
REMARK    1  A    between atoms: _1  and  _13
REMARK    2  A    between atoms: _6  and  _7
REMARK    3  A    between atoms: _9  and  _14
REMARK    4  A    between atoms: _12  and  _21
REMARK    5  A    between atoms: _14  and  _15
REMARK    6  A    between atoms: _21  and  _22
REMARK                            x       y       z     vdW  Elec       q    Type
REMARK                         _______ _______ _______ _____ _____    ______ ____
ROOT
ATOM      1  C   UNL     1     -14.011   4.977 -16.269  0.00  0.00    +0.127 C 
ATOM      2  N   UNL     1     -12.766   4.263 -16.758  0.00  0.00    -0.321 N 
ATOM      3  C   UNL     1     -12.148   4.745 -17.957  0.00  0.00    +0.076 C 
ATOM      4  C   UNL     1     -12.753   5.451 -18.941  0.00  0.00    -0.020 C 
ATOM      5  C   UNL     1     -14.177   5.713 -18.716  0.00  0.00    +0.004 C 
ATOM      6  C   UNL     1     -14.767   5.470 -17.514  0.00  0.00    +0.000 C 
ENDROOT
BRANCH   1  11
ATOM      7  C   UNL     1     -16.572   3.276 -12.878  0.00  0.00    -0.050 A 
ATOM      8  C   UNL     1     -17.429   2.873 -11.716  0.00  0.00    +0.044 C 
ATOM      9  C   UNL     1     -15.767   4.425 -12.770  0.00  0.00    +0.004 A 
ATOM     10  C   UNL     1     -14.955   4.924 -13.843  0.00  0.00    +0.006 A 
ATOM     11  C   UNL     1     -14.858   4.300 -15.111  0.00  0.00    -0.023 A 
ATOM     12  C   UNL     1     -15.640   3.137 -15.221  0.00  0.00    +0.006 A 
ATOM     13  C   UNL     1     -16.480   2.649 -14.141  0.00  0.00    +0.004 A 
ENDBRANCH   1  11
BRANCH   2  14
ATOM     14  C   UNL     1     -11.991   3.588 -15.693  0.00  0.00    +0.140 C 
BRANCH  14  15
ATOM     15  C   UNL     1     -11.651   2.127 -15.926  0.00  0.00    -0.030 A 
ATOM     16  C   UNL     1     -12.595   1.270 -16.514  0.00  0.00    +0.005 A 
ATOM     17  C   UNL     1     -12.292  -0.072 -16.751  0.00  0.00    +0.000 A 
ATOM     18  C   UNL     1     -11.040  -0.574 -16.401  0.00  0.00    +0.000 A 
ATOM     19  C   UNL     1     -10.090   0.267 -15.825  0.00  0.00    +0.000 A 
ATOM     20  C   UNL     1     -10.387   1.613 -15.598  0.00  0.00    +0.005 A 
ENDBRANCH  14  15
ENDBRANCH   2  14
BRANCH   4  21
ATOM     21  C   UNL     1     -12.015   5.888 -20.172  0.00  0.00    +0.114 C 
BRANCH  21  22
ATOM     22  N   UNL     1     -11.277   6.324 -21.403  0.00  0.00    -0.326 NA
ATOM     23  H   UNL     1     -10.755   7.178 -21.201  0.00  0.00    +0.119 HD
ATOM     24  H   UNL     1     -10.630   5.589 -21.690  0.00  0.00    +0.119 HD
ENDBRANCH  21  22
ENDBRANCH   4  21
TORSDOF 5
ENDMDL
MODEL 3
REMARK VINA RESULT:      -7.5      2.356      4.778
REMARK  Name = min_compound925.pdb
REMARK  6 active torsions:
REMARK  status: ('A' for Active; 'I' for Inactive)
REMARK    1  A    between atoms: _1  and  _13
REMARK    2  A    between atoms: _6  and  _7
REMARK    3  A    between atoms: _9  and  _14
REMARK    4  A    between atoms: _12  and  _21
REMARK    5  A    between atoms: _14  and  _15
REMARK    6  A    between atoms: _21  and  _22
REMARK                            x       y       z     vdW  Elec       q    Type
REMARK                         _______ _______ _______ _____ _____    ______ ____
ROOT
ATOM      1  C   UNL     1     -14.051   2.825 -16.364  0.00  0.00    +0.127 C 
ATOM      2  N   UNL     1     -14.549   3.122 -17.766  0.00  0.00    -0.321 N 
ATOM      3  C   UNL     1     -15.826   3.758 -17.901  0.00  0.00    +0.076 C 
ATOM      4  C   UNL     1     -16.831   3.733 -16.995  0.00  0.00    -0.020 C 
ATOM      5  C   UNL     1     -16.542   2.960 -15.785  0.00  0.00    +0.004 C 
ATOM      6  C   UNL     1     -15.287   2.515 -15.504  0.00  0.00    +0.000 C 
ENDROOT
BRANCH   1  11
ATOM      7  C   UNL     1     -10.430   0.034 -16.160  0.00  0.00    -0.050 A 
ATOM      8  C   UNL     1      -9.307  -0.958 -16.222  0.00  0.00    +0.044 C 
ATOM      9  C   UNL     1     -11.710  -0.351 -16.599  0.00  0.00    +0.004 A 
ATOM     10  C   UNL     1     -12.835   0.539 -16.631  0.00  0.00    +0.006 A 
ATOM     11  C   UNL     1     -12.783   1.888 -16.201  0.00  0.00    -0.023 A 
ATOM     12  C   UNL     1     -11.513   2.276 -15.738  0.00  0.00    +0.006 A 
ATOM     13  C   UNL     1     -10.371   1.379 -15.731  0.00  0.00    +0.004 A 
ENDBRANCH   1  11
BRANCH   2  14
ATOM     14  C   UNL     1     -13.476   3.296 -18.771  0.00  0.00    +0.140 C 
BRANCH  14  15
ATOM     15  C   UNL     1     -12.868   4.683 -18.877  0.00  0.00    -0.030 A 
ATOM     16  C   UNL     1     -12.822   5.337 -20.119  0.00  0.00    +0.005 A 
ATOM     17  C   UNL     1     -12.281   6.619 -20.231  0.00  0.00    +0.000 A 
ATOM     18  C   UNL     1     -11.778   7.263 -19.102  0.00  0.00    +0.000 A 
ATOM     19  C   UNL     1     -11.825   6.629 -17.862  0.00  0.00    +0.000 A 
ATOM     20  C   UNL     1     -12.376   5.351 -17.746  0.00  0.00    +0.005 A 
ENDBRANCH  14  15
ENDBRANCH   2  14
BRANCH   4  21
ATOM     21  C   UNL     1     -18.143   4.415 -17.248  0.00  0.00    +0.114 C 
BRANCH  21  22
ATOM     22  N   UNL     1     -19.454   5.098 -17.501  0.00  0.00    -0.326 NA
ATOM     23  H   UNL     1     -19.702   5.004 -18.487  0.00  0.00    +0.119 HD
ATOM     24  H   UNL     1     -20.178   4.668 -16.926  0.00  0.00    +0.119 HD
ENDBRANCH  21  22
ENDBRANCH   4  21
TORSDOF 5
ENDMDL
MODEL 4
REMARK VINA RESULT:      -7.3      1.932      5.076
REMARK  Name = min_compound925.pdb
REMARK  6 active torsions:
REMARK  status: ('A' for Active; 'I' for Inactive)
REMARK    1  A    between atoms: _1  and  _13
REMARK    2  A    between atoms: _6  and  _7
REMARK    3  A    between atoms: _9  and  _14
REMARK    4  A    between atoms: _12  and  _21
REMARK    5  A    between atoms: _14  and  _15
REMARK    6  A    between atoms: _21  and  _22
REMARK                            x       y       z     vdW  Elec       q    Type
REMARK                         _______ _______ _______ _____ _____    ______ ____
ROOT
ATOM      1  C   UNL     1     -13.361   3.800 -15.760  0.00  0.00    +0.127 C 
ATOM      2  N   UNL     1     -13.471   4.946 -16.748  0.00  0.00    -0.321 N 
ATOM      3  C   UNL     1     -14.519   5.901 -16.547  0.00  0.00    +0.076 C 
ATOM      4  C   UNL     1     -15.677   5.691 -15.878  0.00  0.00    -0.020 C 
ATOM      5  C   UNL     1     -15.828   4.339 -15.334  0.00  0.00    +0.004 C 
ATOM      6  C   UNL     1     -14.790   3.460 -15.304  0.00  0.00    +0.000 C 
ENDROOT
BRANCH   1  11
ATOM      7  C   UNL     1     -10.548   0.268 -16.503  0.00  0.00    -0.050 A 
ATOM      8  C   UNL     1      -9.584  -0.878 -16.588  0.00  0.00    +0.044 C 
ATOM      9  C   UNL     1     -10.304   1.300 -15.578  0.00  0.00    +0.004 A 
ATOM     10  C   UNL     1     -11.193   2.409 -15.382  0.00  0.00    +0.006 A 
ATOM     11  C   UNL     1     -12.392   2.596 -16.113  0.00  0.00    -0.023 A 
ATOM     12  C   UNL     1     -12.632   1.581 -17.057  0.00  0.00    +0.006 A 
ATOM     13  C   UNL     1     -11.743   0.447 -17.235  0.00  0.00    +0.004 A 
ENDBRANCH   1  11
BRANCH   2  14
ATOM     14  C   UNL     1     -12.196   5.307 -17.408  0.00  0.00    +0.140 C 
BRANCH  14  15
ATOM     15  C   UNL     1     -12.275   5.666 -18.880  0.00  0.00    -0.030 A 
ATOM     16  C   UNL     1     -11.629   6.818 -19.359  0.00  0.00    +0.005 A 
ATOM     17  C   UNL     1     -11.678   7.154 -20.713  0.00  0.00    +0.000 A 
ATOM     18  C   UNL     1     -12.375   6.342 -21.605  0.00  0.00    +0.000 A 
ATOM     19  C   UNL     1     -13.014   5.192 -21.146  0.00  0.00    +0.000 A 
ATOM     20  C   UNL     1     -12.956   4.848 -19.793  0.00  0.00    +0.005 A 
ENDBRANCH  14  15
ENDBRANCH   2  14
BRANCH   4  21
ATOM     21  C   UNL     1     -16.723   6.757 -15.749  0.00  0.00    +0.114 C 
BRANCH  21  22
ATOM     22  N   UNL     1     -17.769   7.824 -15.619  0.00  0.00    -0.326 NA
ATOM     23  H   UNL     1     -18.353   7.632 -14.805  0.00  0.00    +0.119 HD
ATOM     24  H   UNL     1     -17.317   8.732 -15.507  0.00  0.00    +0.119 HD
ENDBRANCH  21  22
ENDBRANCH   4  21
TORSDOF 5
ENDMDL
MODEL 5
REMARK VINA RESULT:      -7.2      2.779      5.922
REMARK  Name = min_compound925.pdb
REMARK  6 active torsions:
REMARK  status: ('A' for Active; 'I' for Inactive)
REMARK    1  A    between atoms: _1  and  _13
REMARK    2  A    between atoms: _6  and  _7
REMARK    3  A    between atoms: _9  and  _14
REMARK    4  A    between atoms: _12  and  _21
REMARK    5  A    between atoms: _14  and  _15
REMARK    6  A    between atoms: _21  and  _22
REMARK                            x       y       z     vdW  Elec       q    Type
REMARK                         _______ _______ _______ _____ _____    ______ ____
ROOT
ATOM      1  C   UNL     1     -14.133   3.051 -17.864  0.00  0.00    +0.127 C 
ATOM      2  N   UNL     1     -13.052   3.572 -16.935  0.00  0.00    -0.321 N 
ATOM      3  C   UNL     1     -13.392   3.764 -15.557  0.00  0.00    +0.076 C 
ATOM      4  C   UNL     1     -14.634   3.965 -15.060  0.00  0.00    -0.020 C 
ATOM      5  C   UNL     1     -15.697   3.992 -16.068  0.00  0.00    +0.004 C 
ATOM      6  C   UNL     1     -15.472   3.608 -17.354  0.00  0.00    +0.000 C 
ENDROOT
BRANCH   1  11
ATOM      7  C   UNL     1     -13.145   3.345 -22.322  0.00  0.00    -0.050 A 
ATOM      8  C   UNL     1     -12.743   3.581 -23.748  0.00  0.00    +0.044 C 
ATOM      9  C   UNL     1     -13.354   4.451 -21.478  0.00  0.00    +0.004 A 
ATOM     10  C   UNL     1     -13.686   4.330 -20.087  0.00  0.00    +0.006 A 
ATOM     11  C   UNL     1     -13.863   3.089 -19.426  0.00  0.00    -0.023 A 
ATOM     12  C   UNL     1     -13.680   1.978 -20.268  0.00  0.00    +0.006 A 
ATOM     13  C   UNL     1     -13.319   2.105 -21.669  0.00  0.00    +0.004 A 
ENDBRANCH   1  11
BRANCH   2  14
ATOM     14  C   UNL     1     -11.672   3.256 -17.367  0.00  0.00    +0.140 C 
BRANCH  14  15
ATOM     15  C   UNL     1     -11.148   1.879 -17.001  0.00  0.00    -0.030 A 
ATOM     16  C   UNL     1     -10.481   1.682 -15.780  0.00  0.00    +0.005 A 
ATOM     17  C   UNL     1     -10.008   0.419 -15.421  0.00  0.00    +0.000 A 
ATOM     18  C   UNL     1     -10.194  -0.663 -16.279  0.00  0.00    +0.000 A 
ATOM     19  C   UNL     1     -10.861  -0.484 -17.489  0.00  0.00    +0.000 A 
ATOM     20  C   UNL     1     -11.346   0.777 -17.846  0.00  0.00    +0.005 A 
ENDBRANCH  14  15
ENDBRANCH   2  14
BRANCH   4  21
ATOM     21  C   UNL     1     -14.876   4.181 -13.595  0.00  0.00    +0.114 C 
BRANCH  21  22
ATOM     22  N   UNL     1     -15.119   4.396 -12.131  0.00  0.00    -0.326 NA
ATOM     23  H   UNL     1     -14.253   4.700 -11.684  0.00  0.00    +0.119 HD
ATOM     24  H   UNL     1     -15.835   5.112 -12.006  0.00  0.00    +0.119 HD
ENDBRANCH  21  22
ENDBRANCH   4  21
TORSDOF 5
ENDMDL
MODEL 6
REMARK VINA RESULT:      -7.2      2.311      4.758
REMARK  Name = min_compound925.pdb
REMARK  6 active torsions:
REMARK  status: ('A' for Active; 'I' for Inactive)
REMARK    1  A    between atoms: _1  and  _13
REMARK    2  A    between atoms: _6  and  _7
REMARK    3  A    between atoms: _9  and  _14
REMARK    4  A    between atoms: _12  and  _21
REMARK    5  A    between atoms: _14  and  _15
REMARK    6  A    between atoms: _21  and  _22
REMARK                            x       y       z     vdW  Elec       q    Type
REMARK                         _______ _______ _______ _____ _____    ______ ____
ROOT
ATOM      1  C   UNL     1     -13.229   3.805 -15.900  0.00  0.00    +0.127 C 
ATOM      2  N   UNL     1     -13.741   4.501 -17.147  0.00  0.00    -0.321 N 
ATOM      3  C   UNL     1     -14.727   5.526 -16.982  0.00  0.00    +0.076 C 
ATOM      4  C   UNL     1     -15.578   5.657 -15.937  0.00  0.00    -0.020 C 
ATOM      5  C   UNL     1     -15.444   4.622 -14.909  0.00  0.00    +0.004 C 
ATOM      6  C   UNL     1     -14.397   3.754 -14.901  0.00  0.00    +0.000 C 
ENDROOT
BRANCH   1  11
ATOM      7  C   UNL     1     -10.605   0.064 -16.146  0.00  0.00    -0.050 A 
ATOM      8  C   UNL     1      -9.664  -1.103 -16.098  0.00  0.00    +0.044 C 
ATOM      9  C   UNL     1     -10.159   1.322 -15.702  0.00  0.00    +0.004 A 
ATOM     10  C   UNL     1     -10.997   2.486 -15.657  0.00  0.00    +0.006 A 
ATOM     11  C   UNL     1     -12.350   2.497 -16.077  0.00  0.00    -0.023 A 
ATOM     12  C   UNL     1     -12.798   1.249 -16.546  0.00  0.00    +0.006 A 
ATOM     13  C   UNL     1     -11.954   0.068 -16.567  0.00  0.00    +0.004 A 
ENDBRANCH   1  11
BRANCH   2  14
ATOM     14  C   UNL     1     -12.787   4.504 -18.279  0.00  0.00    +0.140 C 
BRANCH  14  15
ATOM     15  C   UNL     1     -13.281   3.900 -19.581  0.00  0.00    -0.030 A 
ATOM     16  C   UNL     1     -13.559   2.525 -19.658  0.00  0.00    +0.005 A 
ATOM     17  C   UNL     1     -14.029   1.958 -20.843  0.00  0.00    +0.000 A 
ATOM     18  C   UNL     1     -14.226   2.758 -21.967  0.00  0.00    +0.000 A 
ATOM     19  C   UNL     1     -13.962   4.125 -21.902  0.00  0.00    +0.000 A 
ATOM     20  C   UNL     1     -13.502   4.697 -20.714  0.00  0.00    +0.005 A 
ENDBRANCH  14  15
ENDBRANCH   2  14
BRANCH   4  21
ATOM     21  C   UNL     1     -16.593   6.759 -15.876  0.00  0.00    +0.114 C 
BRANCH  21  22
ATOM     22  N   UNL     1     -17.609   7.861 -15.814  0.00  0.00    -0.326 NA
ATOM     23  H   UNL     1     -18.180   7.845 -16.660  0.00  0.00    +0.119 HD
ATOM     24  H   UNL     1     -18.206   7.729 -14.998  0.00  0.00    +0.119 HD
ENDBRANCH  21  22
ENDBRANCH   4  21
TORSDOF 5
ENDMDL
MODEL 7
REMARK VINA RESULT:      -7.1      5.714      9.192
REMARK  Name = min_compound925.pdb
REMARK  6 active torsions:
REMARK  status: ('A' for Active; 'I' for Inactive)
REMARK    1  A    between atoms: _1  and  _13
REMARK    2  A    between atoms: _6  and  _7
REMARK    3  A    between atoms: _9  and  _14
REMARK    4  A    between atoms: _12  and  _21
REMARK    5  A    between atoms: _14  and  _15
REMARK    6  A    between atoms: _21  and  _22
REMARK                            x       y       z     vdW  Elec       q    Type
REMARK                         _______ _______ _______ _____ _____    ______ ____
ROOT
ATOM      1  C   UNL     1     -17.387   4.318  -9.003  0.00  0.00    +0.127 C 
ATOM      2  N   UNL     1     -16.940   3.254  -8.018  0.00  0.00    -0.321 N 
ATOM      3  C   UNL     1     -17.278   3.438  -6.638  0.00  0.00    +0.076 C 
ATOM      4  C   UNL     1     -17.546   4.618  -6.031  0.00  0.00    -0.020 C 
ATOM      5  C   UNL     1     -17.461   5.788  -6.908  0.00  0.00    +0.004 C 
ATOM      6  C   UNL     1     -17.356   5.663  -8.259  0.00  0.00    +0.000 C 
ENDROOT
BRANCH   1  11
ATOM      7  C   UNL     1     -15.437   4.111 -13.138  0.00  0.00    -0.050 A 
ATOM      8  C   UNL     1     -14.653   4.051 -14.416  0.00  0.00    +0.044 C 
ATOM      9  C   UNL     1     -14.900   4.803 -12.037  0.00  0.00    +0.004 A 
ATOM     10  C   UNL     1     -15.544   4.872 -10.757  0.00  0.00    +0.006 A 
ATOM     11  C   UNL     1     -16.797   4.274 -10.474  0.00  0.00    -0.023 A 
ATOM     12  C   UNL     1     -17.354   3.600 -11.576  0.00  0.00    +0.006 A 
ATOM     13  C   UNL     1     -16.686   3.512 -12.863  0.00  0.00    +0.004 A 
ENDBRANCH   1  11
BRANCH   2  14
ATOM     14  C   UNL     1     -16.765   1.909  -8.611  0.00  0.00    +0.140 C 
BRANCH  14  15
ATOM     15  C   UNL     1     -16.001   0.897  -7.777  0.00  0.00    -0.030 A 
ATOM     16  C   UNL     1     -16.549  -0.374  -7.536  0.00  0.00    +0.005 A 
ATOM     17  C   UNL     1     -15.851  -1.321  -6.785  0.00  0.00    +0.000 A 
ATOM     18  C   UNL     1     -14.597  -1.009  -6.263  0.00  0.00    +0.000 A 
ATOM     19  C   UNL     1     -14.038   0.245  -6.502  0.00  0.00    +0.000 A 
ATOM     20  C   UNL     1     -14.729   1.190  -7.262  0.00  0.00    +0.005 A 
ENDBRANCH  14  15
ENDBRANCH   2  14
BRANCH   4  21
ATOM     21  C   UNL     1     -17.866   4.701  -4.568  0.00  0.00    +0.114 C 
BRANCH  21  22
ATOM     22  N   UNL     1     -18.186   4.784  -3.105  0.00  0.00    -0.326 NA
ATOM     23  H   UNL     1     -18.976   5.413  -2.964  0.00  0.00    +0.119 HD
ATOM     24  H   UNL     1     -18.424   3.855  -2.755  0.00  0.00    +0.119 HD
ENDBRANCH  21  22
ENDBRANCH   4  21
TORSDOF 5
ENDMDL
MODEL 8
REMARK VINA RESULT:      -7.1      2.922      7.383
REMARK  Name = min_compound925.pdb
REMARK  6 active torsions:
REMARK  status: ('A' for Active; 'I' for Inactive)
REMARK    1  A    between atoms: _1  and  _13
REMARK    2  A    between atoms: _6  and  _7
REMARK    3  A    between atoms: _9  and  _14
REMARK    4  A    between atoms: _12  and  _21
REMARK    5  A    between atoms: _14  and  _15
REMARK    6  A    between atoms: _21  and  _22
REMARK                            x       y       z     vdW  Elec       q    Type
REMARK                         _______ _______ _______ _____ _____    ______ ____
ROOT
ATOM      1  C   UNL     1     -12.817   3.843 -16.561  0.00  0.00    +0.127 C 
ATOM      2  N   UNL     1     -12.684   2.755 -17.610  0.00  0.00    -0.321 N 
ATOM      3  C   UNL     1     -11.851   1.631 -17.304  0.00  0.00    +0.076 C 
ATOM      4  C   UNL     1     -10.833   1.609 -16.413  0.00  0.00    -0.020 C 
ATOM      5  C   UNL     1     -10.594   2.883 -15.729  0.00  0.00    +0.004 C 
ATOM      6  C   UNL     1     -11.474   3.916 -15.816  0.00  0.00    +0.000 C 
ENDROOT
BRANCH   1  11
ATOM      7  C   UNL     1     -14.892   7.811 -17.502  0.00  0.00    -0.050 A 
ATOM      8  C   UNL     1     -15.658   9.090 -17.673  0.00  0.00    +0.044 C 
ATOM      9  C   UNL     1     -15.502   6.731 -16.839  0.00  0.00    +0.004 A 
ATOM     10  C   UNL     1     -14.835   5.488 -16.577  0.00  0.00    +0.006 A 
ATOM     11  C   UNL     1     -13.506   5.208 -16.980  0.00  0.00    -0.023 A 
ATOM     12  C   UNL     1     -12.896   6.274 -17.665  0.00  0.00    +0.006 A 
ATOM     13  C   UNL     1     -13.566   7.540 -17.906  0.00  0.00    +0.004 A 
ENDBRANCH   1  11
BRANCH   2  14
ATOM     14  C   UNL     1     -13.841   2.648 -18.528  0.00  0.00    +0.140 C 
BRANCH  14  15
ATOM     15  C   UNL     1     -13.552   2.840 -20.005  0.00  0.00    -0.030 A 
ATOM     16  C   UNL     1     -13.352   1.724 -20.835  0.00  0.00    +0.005 A 
ATOM     17  C   UNL     1     -13.101   1.884 -22.198  0.00  0.00    +0.000 A 
ATOM     18  C   UNL     1     -13.045   3.162 -22.750  0.00  0.00    +0.000 A 
ATOM     19  C   UNL     1     -13.250   4.278 -21.941  0.00  0.00    +0.000 A 
ATOM     20  C   UNL     1     -13.513   4.120 -20.579  0.00  0.00    +0.005 A 
ENDBRANCH  14  15
ENDBRANCH   2  14
BRANCH   4  21
ATOM     21  C   UNL     1     -10.004   0.379 -16.186  0.00  0.00    +0.114 C 
BRANCH  21  22
ATOM     22  N   UNL     1      -9.176  -0.851 -15.960  0.00  0.00    -0.326 NA
ATOM     23  H   UNL     1      -8.194  -0.588 -15.876  0.00  0.00    +0.119 HD
ATOM     24  H   UNL     1      -9.479  -1.312 -15.101  0.00  0.00    +0.119 HD
ENDBRANCH  21  22
ENDBRANCH   4  21
TORSDOF 5
ENDMDL
MODEL 9
REMARK VINA RESULT:      -6.8      2.200      5.850
REMARK  Name = min_compound925.pdb
REMARK  6 active torsions:
REMARK  status: ('A' for Active; 'I' for Inactive)
REMARK    1  A    between atoms: _1  and  _13
REMARK    2  A    between atoms: _6  and  _7
REMARK    3  A    between atoms: _9  and  _14
REMARK    4  A    between atoms: _12  and  _21
REMARK    5  A    between atoms: _14  and  _15
REMARK    6  A    between atoms: _21  and  _22
REMARK                            x       y       z     vdW  Elec       q    Type
REMARK                         _______ _______ _______ _____ _____    ______ ____
ROOT
ATOM      1  C   UNL     1     -15.384   4.345 -15.653  0.00  0.00    +0.127 C 
ATOM      2  N   UNL     1     -15.119   3.179 -16.588  0.00  0.00    -0.321 N 
ATOM      3  C   UNL     1     -15.079   3.447 -17.994  0.00  0.00    +0.076 C 
ATOM      4  C   UNL     1     -15.672   4.486 -18.628  0.00  0.00    -0.020 C 
ATOM      5  C   UNL     1     -16.422   5.388 -17.750  0.00  0.00    +0.004 C 
ATOM      6  C   UNL     1     -16.323   5.311 -16.395  0.00  0.00    +0.000 C 
ENDROOT
BRANCH   1  11
ATOM      7  C   UNL     1     -16.293   3.713 -11.213  0.00  0.00    -0.050 A 
ATOM      8  C   UNL     1     -16.536   3.658  -9.734  0.00  0.00    +0.044 C 
ATOM      9  C   UNL     1     -15.247   4.514 -11.706  0.00  0.00    +0.004 A 
ATOM     10  C   UNL     1     -14.969   4.676 -13.105  0.00  0.00    +0.006 A 
ATOM     11  C   UNL     1     -15.700   4.029 -14.132  0.00  0.00    -0.023 A 
ATOM     12  C   UNL     1     -16.733   3.207 -13.648  0.00  0.00    +0.006 A 
ATOM     13  C   UNL     1     -17.027   3.065 -12.233  0.00  0.00    +0.004 A 
ENDBRANCH   1  11
BRANCH   2  14
ATOM     14  C   UNL     1     -14.350   2.071 -15.978  0.00  0.00    +0.140 C 
BRANCH  14  15
ATOM     15  C   UNL     1     -12.874   2.001 -16.326  0.00  0.00    -0.030 A 
ATOM     16  C   UNL     1     -12.399   0.984 -17.171  0.00  0.00    +0.005 A 
ATOM     17  C   UNL     1     -11.048   0.915 -17.514  0.00  0.00    +0.000 A 
ATOM     18  C   UNL     1     -10.154   1.860 -17.016  0.00  0.00    +0.000 A 
ATOM     19  C   UNL     1     -10.613   2.880 -16.184  0.00  0.00    +0.000 A 
ATOM     20  C   UNL     1     -11.967   2.958 -15.848  0.00  0.00    +0.005 A 
ENDBRANCH  14  15
ENDBRANCH   2  14
BRANCH   4  21
ATOM     21  C   UNL     1     -15.588   4.659 -20.116  0.00  0.00    +0.114 C 
BRANCH  21  22
ATOM     22  N   UNL     1     -15.504   4.833 -21.603  0.00  0.00    -0.326 NA
ATOM     23  H   UNL     1     -16.148   4.186 -22.058  0.00  0.00    +0.119 HD
ATOM     24  H   UNL     1     -15.754   5.791 -21.848  0.00  0.00    +0.119 HD
ENDBRANCH  21  22
ENDBRANCH   4  21
TORSDOF 5
ENDMDL
