MODEL 1
REMARK VINA RESULT:      -7.2      0.000      0.000
REMARK  Name = min_compound981.pdb
REMARK  7 active torsions:
REMARK  status: ('A' for Active; 'I' for Inactive)
REMARK    1  A    between atoms: _3  and  _7
REMARK    2  A    between atoms: _6  and  _19
REMARK    3  A    between atoms: _8  and  _9
REMARK    4  A    between atoms: _8  and  _10
REMARK    5  A    between atoms: _9  and  _13
REMARK    6  A    between atoms: _10  and  _11
REMARK    7  A    between atoms: _19  and  _20
REMARK                            x       y       z     vdW  Elec       q    Type
REMARK                         _______ _______ _______ _____ _____    ______ ____
ROOT
ATOM      1  C   UNL     1     -13.686   3.953 -17.363  0.00  0.00    +0.016 C 
ATOM      2  C   UNL     1     -12.436   3.165 -17.290  0.00  0.00    +0.014 C 
ENDROOT
BRANCH   1   4
ATOM      3  C   UNL     1     -13.902   6.402 -17.265  0.00  0.00    +0.008 A 
ATOM      4  C   UNL     1     -14.214   5.157 -16.690  0.00  0.00    -0.025 A 
ATOM      5  C   UNL     1     -15.025   5.162 -15.552  0.00  0.00    +0.008 A 
ATOM      6  C   UNL     1     -15.490   6.360 -14.990  0.00  0.00    +0.005 A 
ATOM      7  C   UNL     1     -15.163   7.581 -15.574  0.00  0.00    -0.034 A 
ATOM      8  C   UNL     1     -14.371   7.604 -16.717  0.00  0.00    +0.005 A 
BRANCH   7   9
ATOM      9  C   UNL     1     -15.645   8.802 -15.006  0.00  0.00    +0.113 C 
BRANCH   9  10
ATOM     10  N   UNL     1     -16.131  10.044 -14.429  0.00  0.00    -0.326 NA
ATOM     11  H   UNL     1     -15.367  10.517 -13.946  0.00  0.00    +0.119 HD
ATOM     12  H   UNL     1     -16.488  10.647 -15.171  0.00  0.00    +0.119 HD
ENDBRANCH   9  10
ENDBRANCH   7   9
ENDBRANCH   1   4
BRANCH   2  13
ATOM     13  C   UNL     1     -12.306   2.023 -18.045  0.00  0.00    +0.190 C 
ATOM     14  O   UNL     1     -12.862   1.798 -19.172  0.00  0.00    -0.287 OA
BRANCH  13  15
ATOM     15  C   UNL     1     -11.391   0.929 -17.525  0.00  0.00    +0.022 A 
ATOM     16  C   UNL     1      -9.998   0.929 -17.697  0.00  0.00    +0.012 A 
ATOM     17  C   UNL     1      -9.201  -0.069 -17.128  0.00  0.00    +0.001 A 
ATOM     18  C   UNL     1      -9.774  -1.063 -16.329  0.00  0.00    +0.000 A 
ATOM     19  C   UNL     1     -11.146  -1.061 -16.109  0.00  0.00    +0.001 A 
ATOM     20  C   UNL     1     -11.941  -0.080 -16.707  0.00  0.00    +0.012 A 
ENDBRANCH  13  15
ENDBRANCH   2  13
BRANCH   2  21
ATOM     21  C   UNL     1     -11.417   3.663 -16.308  0.00  0.00    +0.117 C 
BRANCH  21  22
ATOM     22  N   UNL     1     -10.399   4.160 -15.325  0.00  0.00    -0.326 NA
ATOM     23  H   UNL     1     -10.644   3.838 -14.389  0.00  0.00    +0.119 HD
ATOM     24  H   UNL     1      -9.478   3.801 -15.578  0.00  0.00    +0.119 HD
ENDBRANCH  21  22
ENDBRANCH   2  21
TORSDOF 7
ENDMDL
MODEL 2
REMARK VINA RESULT:      -7.2      2.543      3.399
REMARK  Name = min_compound981.pdb
REMARK  7 active torsions:
REMARK  status: ('A' for Active; 'I' for Inactive)
REMARK    1  A    between atoms: _3  and  _7
REMARK    2  A    between atoms: _6  and  _19
REMARK    3  A    between atoms: _8  and  _9
REMARK    4  A    between atoms: _8  and  _10
REMARK    5  A    between atoms: _9  and  _13
REMARK    6  A    between atoms: _10  and  _11
REMARK    7  A    between atoms: _19  and  _20
REMARK                            x       y       z     vdW  Elec       q    Type
REMARK                         _______ _______ _______ _____ _____    ______ ____
ROOT
ATOM      1  C   UNL     1     -14.233   2.266 -16.190  0.00  0.00    +0.016 C 
ATOM      2  C   UNL     1     -13.337   2.773 -17.252  0.00  0.00    +0.014 C 
ENDROOT
BRANCH   1   4
ATOM      3  C   UNL     1     -16.281   2.286 -14.826  0.00  0.00    +0.008 A 
ATOM      4  C   UNL     1     -15.035   2.874 -15.109  0.00  0.00    -0.025 A 
ATOM      5  C   UNL     1     -14.645   3.960 -14.320  0.00  0.00    +0.008 A 
ATOM      6  C   UNL     1     -15.473   4.460 -13.304  0.00  0.00    +0.005 A 
ATOM      7  C   UNL     1     -16.705   3.865 -13.047  0.00  0.00    -0.034 A 
ATOM      8  C   UNL     1     -17.110   2.772 -13.807  0.00  0.00    +0.005 A 
BRANCH   7   9
ATOM      9  C   UNL     1     -17.545   4.370 -12.006  0.00  0.00    +0.113 C 
BRANCH   9  10
ATOM     10  N   UNL     1     -18.398   4.886 -10.948  0.00  0.00    -0.326 NA
ATOM     11  H   UNL     1     -18.925   4.119 -10.531  0.00  0.00    +0.119 HD
ATOM     12  H   UNL     1     -17.822   5.330 -10.233  0.00  0.00    +0.119 HD
ENDBRANCH   9  10
ENDBRANCH   7   9
ENDBRANCH   1   4
BRANCH   2  13
ATOM     13  C   UNL     1     -12.684   1.884 -18.073  0.00  0.00    +0.190 C 
ATOM     14  O   UNL     1     -12.837   1.773 -19.336  0.00  0.00    -0.287 OA
BRANCH  13  15
ATOM     15  C   UNL     1     -11.655   0.961 -17.444  0.00  0.00    +0.022 A 
ATOM     16  C   UNL     1     -11.983  -0.200 -16.728  0.00  0.00    +0.012 A 
ATOM     17  C   UNL     1     -10.987  -1.050 -16.237  0.00  0.00    +0.001 A 
ATOM     18  C   UNL     1      -9.639  -0.786 -16.498  0.00  0.00    +0.000 A 
ATOM     19  C   UNL     1      -9.291   0.335 -17.241  0.00  0.00    +0.001 A 
ATOM     20  C   UNL     1     -10.288   1.199 -17.699  0.00  0.00    +0.012 A 
ENDBRANCH  13  15
ENDBRANCH   2  13
BRANCH   2  21
ATOM     21  C   UNL     1     -13.160   4.262 -17.289  0.00  0.00    +0.117 C 
BRANCH  21  22
ATOM     22  N   UNL     1     -12.982   5.751 -17.327  0.00  0.00    -0.326 NA
ATOM     23  H   UNL     1     -12.284   5.993 -18.030  0.00  0.00    +0.119 HD
ATOM     24  H   UNL     1     -13.871   6.193 -17.564  0.00  0.00    +0.119 HD
ENDBRANCH  21  22
ENDBRANCH   2  21
TORSDOF 7
ENDMDL
MODEL 3
REMARK VINA RESULT:      -7.0      3.135      3.941
REMARK  Name = min_compound981.pdb
REMARK  7 active torsions:
REMARK  status: ('A' for Active; 'I' for Inactive)
REMARK    1  A    between atoms: _3  and  _7
REMARK    2  A    between atoms: _6  and  _19
REMARK    3  A    between atoms: _8  and  _9
REMARK    4  A    between atoms: _8  and  _10
REMARK    5  A    between atoms: _9  and  _13
REMARK    6  A    between atoms: _10  and  _11
REMARK    7  A    between atoms: _19  and  _20
REMARK                            x       y       z     vdW  Elec       q    Type
REMARK                         _______ _______ _______ _____ _____    ______ ____
ROOT
ATOM      1  C   UNL     1     -13.698   3.278 -15.319  0.00  0.00    +0.016 C 
ATOM      2  C   UNL     1     -13.346   3.195 -16.754  0.00  0.00    +0.014 C 
ENDROOT
BRANCH   1   4
ATOM      3  C   UNL     1     -15.974   2.525 -14.765  0.00  0.00    +0.008 A 
ATOM      4  C   UNL     1     -14.945   3.459 -14.549  0.00  0.00    -0.025 A 
ATOM      5  C   UNL     1     -15.176   4.457 -13.598  0.00  0.00    +0.008 A 
ATOM      6  C   UNL     1     -16.393   4.541 -12.905  0.00  0.00    +0.005 A 
ATOM      7  C   UNL     1     -17.399   3.608 -13.141  0.00  0.00    -0.034 A 
ATOM      8  C   UNL     1     -17.189   2.594 -14.070  0.00  0.00    +0.005 A 
BRANCH   7   9
ATOM      9  C   UNL     1     -18.636   3.688 -12.429  0.00  0.00    +0.113 C 
BRANCH   9  10
ATOM     10  N   UNL     1     -19.894   3.772 -11.705  0.00  0.00    -0.326 NA
ATOM     11  H   UNL     1     -20.417   2.905 -11.829  0.00  0.00    +0.119 HD
ATOM     12  H   UNL     1     -19.706   3.915 -10.712  0.00  0.00    +0.119 HD
ENDBRANCH   9  10
ENDBRANCH   7   9
ENDBRANCH   1   4
BRANCH   2  13
ATOM     13  C   UNL     1     -12.027   3.083 -17.125  0.00  0.00    +0.190 C 
ATOM     14  O   UNL     1     -11.283   4.027 -17.556  0.00  0.00    -0.287 OA
BRANCH  13  15
ATOM     15  C   UNL     1     -11.364   1.725 -16.986  0.00  0.00    +0.022 A 
ATOM     16  C   UNL     1     -12.047   0.557 -16.612  0.00  0.00    +0.012 A 
ATOM     17  C   UNL     1     -11.396  -0.679 -16.574  0.00  0.00    +0.001 A 
ATOM     18  C   UNL     1     -10.057  -0.786 -16.961  0.00  0.00    +0.000 A 
ATOM     19  C   UNL     1      -9.370   0.348 -17.376  0.00  0.00    +0.001 A 
ATOM     20  C   UNL     1     -10.017   1.586 -17.379  0.00  0.00    +0.012 A 
ENDBRANCH  13  15
ENDBRANCH   2  13
BRANCH   2  21
ATOM     21  C   UNL     1     -14.497   3.320 -17.707  0.00  0.00    +0.117 C 
BRANCH  21  22
ATOM     22  N   UNL     1     -15.648   3.445 -18.661  0.00  0.00    -0.326 NA
ATOM     23  H   UNL     1     -15.429   2.948 -19.525  0.00  0.00    +0.119 HD
ATOM     24  H   UNL     1     -16.485   3.041 -18.239  0.00  0.00    +0.119 HD
ENDBRANCH  21  22
ENDBRANCH   2  21
TORSDOF 7
ENDMDL
MODEL 4
REMARK VINA RESULT:      -6.6      7.843      9.860
REMARK  Name = min_compound981.pdb
REMARK  7 active torsions:
REMARK  status: ('A' for Active; 'I' for Inactive)
REMARK    1  A    between atoms: _3  and  _7
REMARK    2  A    between atoms: _6  and  _19
REMARK    3  A    between atoms: _8  and  _9
REMARK    4  A    between atoms: _8  and  _10
REMARK    5  A    between atoms: _9  and  _13
REMARK    6  A    between atoms: _10  and  _11
REMARK    7  A    between atoms: _19  and  _20
REMARK                            x       y       z     vdW  Elec       q    Type
REMARK                         _______ _______ _______ _____ _____    ______ ____
ROOT
ATOM      1  C   UNL     1     -16.899   2.322  -9.176  0.00  0.00    +0.016 C 
ATOM      2  C   UNL     1     -17.234   3.556  -9.920  0.00  0.00    +0.014 C 
ENDROOT
BRANCH   1   4
ATOM      3  C   UNL     1     -14.970   1.468  -7.910  0.00  0.00    +0.008 A 
ATOM      4  C   UNL     1     -16.267   2.013  -7.878  0.00  0.00    -0.025 A 
ATOM      5  C   UNL     1     -16.833   2.247  -6.622  0.00  0.00    +0.008 A 
ATOM      6  C   UNL     1     -16.147   1.930  -5.440  0.00  0.00    +0.005 A 
ATOM      7  C   UNL     1     -14.867   1.387  -5.497  0.00  0.00    -0.034 A 
ATOM      8  C   UNL     1     -14.274   1.159  -6.734  0.00  0.00    +0.005 A 
BRANCH   7   9
ATOM      9  C   UNL     1     -14.165   1.072  -4.292  0.00  0.00    +0.113 C 
BRANCH   9  10
ATOM     10  N   UNL     1     -13.452   0.749  -3.067  0.00  0.00    -0.326 NA
ATOM     11  H   UNL     1     -13.407  -0.264  -2.956  0.00  0.00    +0.119 HD
ATOM     12  H   UNL     1     -12.505   1.127  -3.114  0.00  0.00    +0.119 HD
ENDBRANCH   9  10
ENDBRANCH   7   9
ENDBRANCH   1   4
BRANCH   2  13
ATOM     13  C   UNL     1     -17.781   3.466 -11.178  0.00  0.00    +0.190 C 
ATOM     14  O   UNL     1     -19.027   3.445 -11.458  0.00  0.00    -0.287 OA
BRANCH  13  15
ATOM     15  C   UNL     1     -16.833   3.420 -12.363  0.00  0.00    +0.022 A 
ATOM     16  C   UNL     1     -17.049   2.634 -13.505  0.00  0.00    +0.012 A 
ATOM     17  C   UNL     1     -16.177   2.693 -14.597  0.00  0.00    +0.001 A 
ATOM     18  C   UNL     1     -15.097   3.580 -14.593  0.00  0.00    +0.000 A 
ATOM     19  C   UNL     1     -14.886   4.400 -13.491  0.00  0.00    +0.001 A 
ATOM     20  C   UNL     1     -15.741   4.312 -12.390  0.00  0.00    +0.012 A 
ENDBRANCH  13  15
ENDBRANCH   2  13
BRANCH   2  21
ATOM     21  C   UNL     1     -16.864   4.840  -9.237  0.00  0.00    +0.117 C 
BRANCH  21  22
ATOM     22  N   UNL     1     -16.494   6.123  -8.555  0.00  0.00    -0.326 NA
ATOM     23  H   UNL     1     -15.542   6.054  -8.194  0.00  0.00    +0.119 HD
ATOM     24  H   UNL     1     -16.548   6.892  -9.223  0.00  0.00    +0.119 HD
ENDBRANCH  21  22
ENDBRANCH   2  21
TORSDOF 7
ENDMDL
MODEL 5
REMARK VINA RESULT:      -6.5      8.252     10.388
REMARK  Name = min_compound981.pdb
REMARK  7 active torsions:
REMARK  status: ('A' for Active; 'I' for Inactive)
REMARK    1  A    between atoms: _3  and  _7
REMARK    2  A    between atoms: _6  and  _19
REMARK    3  A    between atoms: _8  and  _9
REMARK    4  A    between atoms: _8  and  _10
REMARK    5  A    between atoms: _9  and  _13
REMARK    6  A    between atoms: _10  and  _11
REMARK    7  A    between atoms: _19  and  _20
REMARK                            x       y       z     vdW  Elec       q    Type
REMARK                         _______ _______ _______ _____ _____    ______ ____
ROOT
ATOM      1  C   UNL     1     -15.921   2.565  -8.971  0.00  0.00    +0.016 C 
ATOM      2  C   UNL     1     -17.114   3.193  -9.579  0.00  0.00    +0.014 C 
ENDROOT
BRANCH   1   4
ATOM      3  C   UNL     1     -14.478   1.520  -7.273  0.00  0.00    +0.008 A 
ATOM      4  C   UNL     1     -15.681   1.476  -8.002  0.00  0.00    -0.025 A 
ATOM      5  C   UNL     1     -16.562   0.428  -7.723  0.00  0.00    +0.008 A 
ATOM      6  C   UNL     1     -16.250  -0.556  -6.772  0.00  0.00    +0.005 A 
ATOM      7  C   UNL     1     -15.051  -0.494  -6.067  0.00  0.00    -0.034 A 
ATOM      8  C   UNL     1     -14.164   0.548  -6.314  0.00  0.00    +0.005 A 
BRANCH   7   9
ATOM      9  C   UNL     1     -14.738  -1.492  -5.093  0.00  0.00    +0.113 C 
BRANCH   9  10
ATOM     10  N   UNL     1     -14.420  -2.509  -4.103  0.00  0.00    -0.326 NA
ATOM     11  H   UNL     1     -14.081  -2.061  -3.252  0.00  0.00    +0.119 HD
ATOM     12  H   UNL     1     -15.258  -3.051  -3.891  0.00  0.00    +0.119 HD
ENDBRANCH   9  10
ENDBRANCH   7   9
ENDBRANCH   1   4
BRANCH   2  13
ATOM     13  C   UNL     1     -16.961   4.265 -10.426  0.00  0.00    +0.190 C 
ATOM     14  O   UNL     1     -17.144   5.493 -10.127  0.00  0.00    -0.287 OA
BRANCH  13  15
ATOM     15  C   UNL     1     -16.500   3.989 -11.846  0.00  0.00    +0.022 A 
ATOM     16  C   UNL     1     -15.347   4.551 -12.415  0.00  0.00    +0.012 A 
ATOM     17  C   UNL     1     -14.932   4.198 -13.702  0.00  0.00    +0.001 A 
ATOM     18  C   UNL     1     -15.632   3.233 -14.432  0.00  0.00    +0.000 A 
ATOM     19  C   UNL     1     -16.753   2.630 -13.874  0.00  0.00    +0.001 A 
ATOM     20  C   UNL     1     -17.182   3.012 -12.601  0.00  0.00    +0.012 A 
ENDBRANCH  13  15
ENDBRANCH   2  13
BRANCH   2  21
ATOM     21  C   UNL     1     -18.432   2.627  -9.142  0.00  0.00    +0.117 C 
BRANCH  21  22
ATOM     22  N   UNL     1     -19.751   2.062  -8.705  0.00  0.00    -0.326 NA
ATOM     23  H   UNL     1     -20.305   2.795  -8.261  0.00  0.00    +0.119 HD
ATOM     24  H   UNL     1     -20.253   1.702  -9.518  0.00  0.00    +0.119 HD
ENDBRANCH  21  22
ENDBRANCH   2  21
TORSDOF 7
ENDMDL
MODEL 6
REMARK VINA RESULT:      -6.5      8.745     10.083
REMARK  Name = min_compound981.pdb
REMARK  7 active torsions:
REMARK  status: ('A' for Active; 'I' for Inactive)
REMARK    1  A    between atoms: _3  and  _7
REMARK    2  A    between atoms: _6  and  _19
REMARK    3  A    between atoms: _8  and  _9
REMARK    4  A    between atoms: _8  and  _10
REMARK    5  A    between atoms: _9  and  _13
REMARK    6  A    between atoms: _10  and  _11
REMARK    7  A    between atoms: _19  and  _20
REMARK                            x       y       z     vdW  Elec       q    Type
REMARK                         _______ _______ _______ _____ _____    ______ ____
ROOT
ATOM      1  C   UNL     1     -16.010   2.526  -8.769  0.00  0.00    +0.016 C 
ATOM      2  C   UNL     1     -16.715   1.474  -8.005  0.00  0.00    +0.014 C 
ENDROOT
BRANCH   1   4
ATOM      3  C   UNL     1     -16.487   4.895  -9.233  0.00  0.00    +0.008 A 
ATOM      4  C   UNL     1     -16.407   3.580  -9.725  0.00  0.00    -0.025 A 
ATOM      5  C   UNL     1     -16.673   3.386 -11.083  0.00  0.00    +0.008 A 
ATOM      6  C   UNL     1     -17.031   4.455 -11.918  0.00  0.00    +0.005 A 
ATOM      7  C   UNL     1     -17.111   5.747 -11.407  0.00  0.00    -0.034 A 
ATOM      8  C   UNL     1     -16.834   5.970 -10.062  0.00  0.00    +0.005 A 
BRANCH   7   9
ATOM      9  C   UNL     1     -17.468   6.838 -12.260  0.00  0.00    +0.113 C 
BRANCH   9  10
ATOM     10  N   UNL     1     -17.829   7.946 -13.129  0.00  0.00    -0.326 NA
ATOM     11  H   UNL     1     -17.005   8.261 -13.640  0.00  0.00    +0.119 HD
ATOM     12  H   UNL     1     -18.542   7.640 -13.791  0.00  0.00    +0.119 HD
ENDBRANCH   9  10
ENDBRANCH   7   9
ENDBRANCH   1   4
BRANCH   2  13
ATOM     13  C   UNL     1     -15.994   0.597  -7.230  0.00  0.00    +0.190 C 
ATOM     14  O   UNL     1     -15.791  -0.639  -7.481  0.00  0.00    -0.287 OA
BRANCH  13  15
ATOM     15  C   UNL     1     -15.340   1.136  -5.970  0.00  0.00    +0.022 A 
ATOM     16  C   UNL     1     -15.944   2.072  -5.117  0.00  0.00    +0.012 A 
ATOM     17  C   UNL     1     -15.323   2.473  -3.930  0.00  0.00    +0.001 A 
ATOM     18  C   UNL     1     -14.105   1.907  -3.543  0.00  0.00    +0.000 A 
ATOM     19  C   UNL     1     -13.507   0.947  -4.350  0.00  0.00    +0.001 A 
ATOM     20  C   UNL     1     -14.116   0.575  -5.551  0.00  0.00    +0.012 A 
ENDBRANCH  13  15
ENDBRANCH   2  13
BRANCH   2  21
ATOM     21  C   UNL     1     -18.199   1.412  -8.213  0.00  0.00    +0.117 C 
BRANCH  21  22
ATOM     22  N   UNL     1     -19.683   1.350  -8.421  0.00  0.00    -0.326 NA
ATOM     23  H   UNL     1     -20.055   2.297  -8.501  0.00  0.00    +0.119 HD
ATOM     24  H   UNL     1     -19.886   0.833  -9.277  0.00  0.00    +0.119 HD
ENDBRANCH  21  22
ENDBRANCH   2  21
TORSDOF 7
ENDMDL
MODEL 7
REMARK VINA RESULT:      -6.4      3.957      4.612
REMARK  Name = min_compound981.pdb
REMARK  7 active torsions:
REMARK  status: ('A' for Active; 'I' for Inactive)
REMARK    1  A    between atoms: _3  and  _7
REMARK    2  A    between atoms: _6  and  _19
REMARK    3  A    between atoms: _8  and  _9
REMARK    4  A    between atoms: _8  and  _10
REMARK    5  A    between atoms: _9  and  _13
REMARK    6  A    between atoms: _10  and  _11
REMARK    7  A    between atoms: _19  and  _20
REMARK                            x       y       z     vdW  Elec       q    Type
REMARK                         _______ _______ _______ _____ _____    ______ ____
ROOT
ATOM      1  C   UNL     1     -12.967   4.167 -18.727  0.00  0.00    +0.016 C 
ATOM      2  C   UNL     1     -13.086   2.693 -18.706  0.00  0.00    +0.014 C 
ENDROOT
BRANCH   1   4
ATOM      3  C   UNL     1     -14.128   5.434 -20.488  0.00  0.00    +0.008 A 
ATOM      4  C   UNL     1     -12.937   5.208 -19.774  0.00  0.00    -0.025 A 
ATOM      5  C   UNL     1     -11.838   6.010 -20.092  0.00  0.00    +0.008 A 
ATOM      6  C   UNL     1     -11.910   6.985 -21.099  0.00  0.00    +0.005 A 
ATOM      7  C   UNL     1     -13.098   7.186 -21.795  0.00  0.00    -0.034 A 
ATOM      8  C   UNL     1     -14.213   6.412 -21.488  0.00  0.00    +0.005 A 
BRANCH   7   9
ATOM      9  C   UNL     1     -13.174   8.185 -22.815  0.00  0.00    +0.113 C 
BRANCH   9  10
ATOM     10  N   UNL     1     -13.248   9.200 -23.853  0.00  0.00    -0.326 NA
ATOM     11  H   UNL     1     -13.840   8.866 -24.614  0.00  0.00    +0.119 HD
ATOM     12  H   UNL     1     -13.646  10.056 -23.465  0.00  0.00    +0.119 HD
ENDBRANCH   9  10
ENDBRANCH   7   9
ENDBRANCH   1   4
BRANCH   2  13
ATOM     13  C   UNL     1     -13.011   2.021 -17.509  0.00  0.00    +0.190 C 
ATOM     14  O   UNL     1     -13.849   2.097 -16.549  0.00  0.00    -0.287 OA
BRANCH  13  15
ATOM     15  C   UNL     1     -11.849   1.066 -17.304  0.00  0.00    +0.022 A 
ATOM     16  C   UNL     1     -10.520   1.372 -17.634  0.00  0.00    +0.012 A 
ATOM     17  C   UNL     1      -9.481   0.479 -17.350  0.00  0.00    +0.001 A 
ATOM     18  C   UNL     1      -9.742  -0.719 -16.681  0.00  0.00    +0.000 A 
ATOM     19  C   UNL     1     -11.044  -1.027 -16.305  0.00  0.00    +0.001 A 
ATOM     20  C   UNL     1     -12.082  -0.146 -16.621  0.00  0.00    +0.012 A 
ENDBRANCH  13  15
ENDBRANCH   2  13
BRANCH   2  21
ATOM     21  C   UNL     1     -13.209   2.038 -20.050  0.00  0.00    +0.117 C 
BRANCH  21  22
ATOM     22  N   UNL     1     -13.333   1.383 -21.394  0.00  0.00    -0.326 NA
ATOM     23  H   UNL     1     -13.953   1.936 -21.986  0.00  0.00    +0.119 HD
ATOM     24  H   UNL     1     -12.411   1.324 -21.829  0.00  0.00    +0.119 HD
ENDBRANCH  21  22
ENDBRANCH   2  21
TORSDOF 7
ENDMDL
MODEL 8
REMARK VINA RESULT:      -6.4      3.457      7.391
REMARK  Name = min_compound981.pdb
REMARK  7 active torsions:
REMARK  status: ('A' for Active; 'I' for Inactive)
REMARK    1  A    between atoms: _3  and  _7
REMARK    2  A    between atoms: _6  and  _19
REMARK    3  A    between atoms: _8  and  _9
REMARK    4  A    between atoms: _8  and  _10
REMARK    5  A    between atoms: _9  and  _13
REMARK    6  A    between atoms: _10  and  _11
REMARK    7  A    between atoms: _19  and  _20
REMARK                            x       y       z     vdW  Elec       q    Type
REMARK                         _______ _______ _______ _____ _____    ______ ____
ROOT
ATOM      1  C   UNL     1     -14.079   3.886 -15.034  0.00  0.00    +0.016 C 
ATOM      2  C   UNL     1     -15.300   4.561 -15.525  0.00  0.00    +0.014 C 
ENDROOT
BRANCH   1   4
ATOM      3  C   UNL     1     -11.710   3.456 -15.543  0.00  0.00    +0.008 A 
ATOM      4  C   UNL     1     -13.044   3.016 -15.629  0.00  0.00    -0.025 A 
ATOM      5  C   UNL     1     -13.272   1.779 -16.238  0.00  0.00    +0.008 A 
ATOM      6  C   UNL     1     -12.219   1.017 -16.764  0.00  0.00    +0.005 A 
ATOM      7  C   UNL     1     -10.908   1.476 -16.672  0.00  0.00    -0.034 A 
ATOM      8  C   UNL     1     -10.650   2.696 -16.056  0.00  0.00    +0.005 A 
BRANCH   7   9
ATOM      9  C   UNL     1      -9.833   0.695 -17.201  0.00  0.00    +0.113 C 
BRANCH   9  10
ATOM     10  N   UNL     1      -8.741  -0.101 -17.737  0.00  0.00    -0.326 NA
ATOM     11  H   UNL     1      -8.732  -0.025 -18.754  0.00  0.00    +0.119 HD
ATOM     12  H   UNL     1      -7.856   0.241 -17.363  0.00  0.00    +0.119 HD
ENDBRANCH   9  10
ENDBRANCH   7   9
ENDBRANCH   1   4
BRANCH   2  13
ATOM     13  C   UNL     1     -16.089   5.265 -14.646  0.00  0.00    +0.190 C 
ATOM     14  O   UNL     1     -16.746   6.327 -14.909  0.00  0.00    -0.287 OA
BRANCH  13  15
ATOM     15  C   UNL     1     -16.233   4.726 -13.234  0.00  0.00    +0.022 A 
ATOM     16  C   UNL     1     -17.009   3.604 -12.902  0.00  0.00    +0.012 A 
ATOM     17  C   UNL     1     -17.041   3.110 -11.595  0.00  0.00    +0.001 A 
ATOM     18  C   UNL     1     -16.256   3.696 -10.598  0.00  0.00    +0.000 A 
ATOM     19  C   UNL     1     -15.447   4.782 -10.910  0.00  0.00    +0.001 A 
ATOM     20  C   UNL     1     -15.445   5.292 -12.210  0.00  0.00    +0.012 A 
ENDBRANCH  13  15
ENDBRANCH   2  13
BRANCH   2  21
ATOM     21  C   UNL     1     -15.616   4.345 -16.975  0.00  0.00    +0.117 C 
BRANCH  21  22
ATOM     22  N   UNL     1     -15.932   4.130 -18.426  0.00  0.00    -0.326 NA
ATOM     23  H   UNL     1     -16.944   4.090 -18.551  0.00  0.00    +0.119 HD
ATOM     24  H   UNL     1     -15.552   4.901 -18.975  0.00  0.00    +0.119 HD
ENDBRANCH  21  22
ENDBRANCH   2  21
TORSDOF 7
ENDMDL
MODEL 9
REMARK VINA RESULT:      -6.3      7.314      8.775
REMARK  Name = min_compound981.pdb
REMARK  7 active torsions:
REMARK  status: ('A' for Active; 'I' for Inactive)
REMARK    1  A    between atoms: _3  and  _7
REMARK    2  A    between atoms: _6  and  _19
REMARK    3  A    between atoms: _8  and  _9
REMARK    4  A    between atoms: _8  and  _10
REMARK    5  A    between atoms: _9  and  _13
REMARK    6  A    between atoms: _10  and  _11
REMARK    7  A    between atoms: _19  and  _20
REMARK                            x       y       z     vdW  Elec       q    Type
REMARK                         _______ _______ _______ _____ _____    ______ ____
ROOT
ATOM      1  C   UNL     1     -16.829   2.865 -10.362  0.00  0.00    +0.016 C 
ATOM      2  C   UNL     1     -16.991   3.425  -9.002  0.00  0.00    +0.014 C 
ENDROOT
BRANCH   1   4
ATOM      3  C   UNL     1     -17.156   2.900 -12.801  0.00  0.00    +0.008 A 
ATOM      4  C   UNL     1     -16.460   3.404 -11.687  0.00  0.00    -0.025 A 
ATOM      5  C   UNL     1     -15.506   4.397 -11.924  0.00  0.00    +0.008 A 
ATOM      6  C   UNL     1     -15.233   4.855 -13.221  0.00  0.00    +0.005 A 
ATOM      7  C   UNL     1     -15.931   4.337 -14.309  0.00  0.00    -0.034 A 
ATOM      8  C   UNL     1     -16.898   3.359 -14.099  0.00  0.00    +0.005 A 
BRANCH   7   9
ATOM      9  C   UNL     1     -15.659   4.810 -15.630  0.00  0.00    +0.113 C 
BRANCH   9  10
ATOM     10  N   UNL     1     -15.380   5.290 -16.974  0.00  0.00    -0.326 NA
ATOM     11  H   UNL     1     -14.858   6.165 -16.921  0.00  0.00    +0.119 HD
ATOM     12  H   UNL     1     -14.827   4.595 -17.475  0.00  0.00    +0.119 HD
ENDBRANCH   9  10
ENDBRANCH   7   9
ENDBRANCH   1   4
BRANCH   2  13
ATOM     13  C   UNL     1     -17.422   2.614  -7.979  0.00  0.00    +0.190 C 
ATOM     14  O   UNL     1     -18.479   2.779  -7.282  0.00  0.00    -0.287 OA
BRANCH  13  15
ATOM     15  C   UNL     1     -16.597   1.382  -7.655  0.00  0.00    +0.022 A 
ATOM     16  C   UNL     1     -15.299   1.430  -7.124  0.00  0.00    +0.012 A 
ATOM     17  C   UNL     1     -14.619   0.259  -6.774  0.00  0.00    +0.001 A 
ATOM     18  C   UNL     1     -15.242  -0.985  -6.900  0.00  0.00    +0.000 A 
ATOM     19  C   UNL     1     -16.542  -1.056  -7.383  0.00  0.00    +0.001 A 
ATOM     20  C   UNL     1     -17.205   0.114  -7.762  0.00  0.00    +0.012 A 
ENDBRANCH  13  15
ENDBRANCH   2  13
BRANCH   2  21
ATOM     21  C   UNL     1     -16.732   4.897  -8.877  0.00  0.00    +0.117 C 
BRANCH  21  22
ATOM     22  N   UNL     1     -16.472   6.369  -8.752  0.00  0.00    -0.326 NA
ATOM     23  H   UNL     1     -15.799   6.658  -9.462  0.00  0.00    +0.119 HD
ATOM     24  H   UNL     1     -17.345   6.881  -8.882  0.00  0.00    +0.119 HD
ENDBRANCH  21  22
ENDBRANCH   2  21
TORSDOF 7
ENDMDL
