MODEL 1
REMARK VINA RESULT:      -8.1      0.000      0.000
REMARK  Name = min_compound952.pdb
REMARK  4 active torsions:
REMARK  status: ('A' for Active; 'I' for Inactive)
REMARK    1  A    between atoms: _12  and  _19
REMARK    2  A    between atoms: _17  and  _18
REMARK    3  A    between atoms: _18  and  _20
REMARK    4  A    between atoms: _20  and  _21
REMARK                            x       y       z     vdW  Elec       q    Type
REMARK                         _______ _______ _______ _____ _____    ______ ____
ROOT
ATOM      1  C   UNL     1      -9.960  -0.953 -17.346  0.00  0.00    +0.001 A 
ATOM      2  C   UNL     1      -9.526  -0.645 -16.059  0.00  0.00    +0.000 A 
ATOM      3  C   UNL     1     -10.015   0.492 -15.415  0.00  0.00    +0.004 A 
ATOM      4  C   UNL     1     -10.954   1.323 -16.050  0.00  0.00    -0.036 A 
ATOM      5  C   UNL     1     -11.446   2.572 -15.364  0.00  0.00    +0.040 C 
ATOM      6  C   UNL     1     -12.827   3.016 -15.854  0.00  0.00    +0.043 C 
ATOM      7  C   UNL     1     -12.872   3.145 -17.360  0.00  0.00    +0.001 C 
ATOM      8  C   UNL     1     -13.276   4.252 -18.024  0.00  0.00    +0.015 C 
ATOM      9  C   UNL     1     -12.369   1.925 -18.041  0.00  0.00    +0.189 C 
ATOM     10  O   UNL     1     -12.893   1.708 -19.169  0.00  0.00    -0.287 OA
ATOM     11  C   UNL     1     -11.391   1.024 -17.353  0.00  0.00    +0.025 A 
ATOM     12  C   UNL     1     -10.884  -0.124 -17.985  0.00  0.00    +0.012 A 
ENDROOT
BRANCH   8  13
ATOM     13  C   UNL     1     -13.817   5.514 -17.505  0.00  0.00    -0.024 A 
ATOM     14  C   UNL     1     -14.905   5.552 -16.622  0.00  0.00    +0.011 A 
ATOM     15  C   UNL     1     -15.491   6.773 -16.265  0.00  0.00    +0.046 A 
ATOM     16  C   UNL     1     -15.002   7.958 -16.812  0.00  0.00    +0.121 A 
ATOM     17  C   UNL     1     -13.892   7.938 -17.654  0.00  0.00    +0.046 A 
ATOM     18  C   UNL     1     -13.314   6.717 -18.013  0.00  0.00    +0.011 A 
BRANCH  16  19
ATOM     19  O   UNL     1     -15.579   9.173 -16.552  0.00  0.00    -0.492 OA
BRANCH  19  20
ATOM     20  C   UNL     1     -15.976   9.339 -15.172  0.00  0.00    +0.225 C 
ATOM     21  C   UNL     1     -16.384  10.753 -14.878  0.00  0.00    +0.048 C 
ENDBRANCH  19  20
ENDBRANCH  16  19
ENDBRANCH   8  13
TORSDOF 3
ENDMDL
MODEL 2
REMARK VINA RESULT:      -7.8      1.372      1.504
REMARK  Name = min_compound952.pdb
REMARK  4 active torsions:
REMARK  status: ('A' for Active; 'I' for Inactive)
REMARK    1  A    between atoms: _12  and  _19
REMARK    2  A    between atoms: _17  and  _18
REMARK    3  A    between atoms: _18  and  _20
REMARK    4  A    between atoms: _20  and  _21
REMARK                            x       y       z     vdW  Elec       q    Type
REMARK                         _______ _______ _______ _____ _____    ______ ____
ROOT
ATOM      1  C   UNL     1     -10.697  -0.923 -17.123  0.00  0.00    +0.001 A 
ATOM      2  C   UNL     1      -9.543  -0.170 -17.326  0.00  0.00    +0.000 A 
ATOM      3  C   UNL     1      -9.583   1.216 -17.173  0.00  0.00    +0.004 A 
ATOM      4  C   UNL     1     -10.777   1.859 -16.804  0.00  0.00    -0.036 A 
ATOM      5  C   UNL     1     -10.822   3.361 -16.683  0.00  0.00    +0.040 C 
ATOM      6  C   UNL     1     -11.922   3.850 -15.737  0.00  0.00    +0.043 C 
ATOM      7  C   UNL     1     -13.272   3.273 -16.102  0.00  0.00    +0.001 C 
ATOM      8  C   UNL     1     -14.386   4.007 -16.324  0.00  0.00    +0.015 C 
ATOM      9  C   UNL     1     -13.228   1.795 -16.243  0.00  0.00    +0.189 C 
ATOM     10  O   UNL     1     -14.314   1.216 -15.958  0.00  0.00    -0.287 OA
ATOM     11  C   UNL     1     -11.950   1.108 -16.607  0.00  0.00    +0.025 A 
ATOM     12  C   UNL     1     -11.889  -0.287 -16.768  0.00  0.00    +0.012 A 
ENDROOT
BRANCH   8  13
ATOM     13  C   UNL     1     -14.597   5.455 -16.203  0.00  0.00    -0.024 A 
ATOM     14  C   UNL     1     -15.356   6.014 -15.166  0.00  0.00    +0.011 A 
ATOM     15  C   UNL     1     -15.663   7.380 -15.164  0.00  0.00    +0.046 A 
ATOM     16  C   UNL     1     -15.228   8.185 -16.215  0.00  0.00    +0.121 A 
ATOM     17  C   UNL     1     -14.434   7.652 -17.227  0.00  0.00    +0.046 A 
ATOM     18  C   UNL     1     -14.135   6.287 -17.229  0.00  0.00    +0.011 A 
BRANCH  16  19
ATOM     19  O   UNL     1     -15.556   9.513 -16.300  0.00  0.00    -0.492 OA
BRANCH  19  20
ATOM     20  C   UNL     1     -16.423   9.963 -15.233  0.00  0.00    +0.225 C 
ATOM     21  C   UNL     1     -16.026  11.319 -14.730  0.00  0.00    +0.048 C 
ENDBRANCH  19  20
ENDBRANCH  16  19
ENDBRANCH   8  13
TORSDOF 3
ENDMDL
MODEL 3
REMARK VINA RESULT:      -7.5      1.739      8.197
REMARK  Name = min_compound952.pdb
REMARK  4 active torsions:
REMARK  status: ('A' for Active; 'I' for Inactive)
REMARK    1  A    between atoms: _12  and  _19
REMARK    2  A    between atoms: _17  and  _18
REMARK    3  A    between atoms: _18  and  _20
REMARK    4  A    between atoms: _20  and  _21
REMARK                            x       y       z     vdW  Elec       q    Type
REMARK                         _______ _______ _______ _____ _____    ______ ____
ROOT
ATOM      1  C   UNL     1     -17.093   8.989 -14.574  0.00  0.00    +0.001 A 
ATOM      2  C   UNL     1     -16.424   9.711 -15.558  0.00  0.00    +0.000 A 
ATOM      3  C   UNL     1     -15.469   9.079 -16.354  0.00  0.00    +0.004 A 
ATOM      4  C   UNL     1     -15.183   7.714 -16.179  0.00  0.00    -0.036 A 
ATOM      5  C   UNL     1     -14.119   7.050 -17.015  0.00  0.00    +0.040 C 
ATOM      6  C   UNL     1     -14.330   5.539 -17.156  0.00  0.00    +0.043 C 
ATOM      7  C   UNL     1     -14.490   4.868 -15.810  0.00  0.00    +0.001 C 
ATOM      8  C   UNL     1     -13.756   3.816 -15.384  0.00  0.00    +0.015 C 
ATOM      9  C   UNL     1     -15.523   5.533 -14.975  0.00  0.00    +0.189 C 
ATOM     10  O   UNL     1     -16.116   4.758 -14.172  0.00  0.00    -0.287 OA
ATOM     11  C   UNL     1     -15.848   6.979 -15.181  0.00  0.00    +0.025 A 
ATOM     12  C   UNL     1     -16.805   7.635 -14.388  0.00  0.00    +0.012 A 
ENDROOT
BRANCH   8  13
ATOM     13  C   UNL     1     -12.727   3.041 -16.089  0.00  0.00    -0.024 A 
ATOM     14  C   UNL     1     -13.040   1.908 -16.852  0.00  0.00    +0.011 A 
ATOM     15  C   UNL     1     -12.024   1.106 -17.387  0.00  0.00    +0.046 A 
ATOM     16  C   UNL     1     -10.691   1.426 -17.138  0.00  0.00    +0.121 A 
ATOM     17  C   UNL     1     -10.366   2.575 -16.421  0.00  0.00    +0.046 A 
ATOM     18  C   UNL     1     -11.382   3.369 -15.883  0.00  0.00    +0.011 A 
BRANCH  16  19
ATOM     19  O   UNL     1      -9.658   0.640 -17.578  0.00  0.00    -0.492 OA
BRANCH  19  20
ATOM     20  C   UNL     1      -9.846  -0.767 -17.303  0.00  0.00    +0.225 C 
ATOM     21  C   UNL     1      -9.647  -1.080 -15.849  0.00  0.00    +0.048 C 
ENDBRANCH  19  20
ENDBRANCH  16  19
ENDBRANCH   8  13
TORSDOF 3
ENDMDL
MODEL 4
REMARK VINA RESULT:      -7.5      1.445      1.995
REMARK  Name = min_compound952.pdb
REMARK  4 active torsions:
REMARK  status: ('A' for Active; 'I' for Inactive)
REMARK    1  A    between atoms: _12  and  _19
REMARK    2  A    between atoms: _17  and  _18
REMARK    3  A    between atoms: _18  and  _20
REMARK    4  A    between atoms: _20  and  _21
REMARK                            x       y       z     vdW  Elec       q    Type
REMARK                         _______ _______ _______ _____ _____    ______ ____
ROOT
ATOM      1  C   UNL     1      -9.806  -0.372 -16.403  0.00  0.00    +0.001 A 
ATOM      2  C   UNL     1     -11.013  -1.058 -16.290  0.00  0.00    +0.000 A 
ATOM      3  C   UNL     1     -12.218  -0.370 -16.436  0.00  0.00    +0.004 A 
ATOM      4  C   UNL     1     -12.225   1.009 -16.708  0.00  0.00    -0.036 A 
ATOM      5  C   UNL     1     -13.532   1.751 -16.822  0.00  0.00    +0.040 C 
ATOM      6  C   UNL     1     -13.425   3.017 -17.678  0.00  0.00    +0.043 C 
ATOM      7  C   UNL     1     -12.304   3.917 -17.209  0.00  0.00    +0.001 C 
ATOM      8  C   UNL     1     -12.448   5.225 -16.899  0.00  0.00    +0.015 C 
ATOM      9  C   UNL     1     -11.018   3.185 -17.075  0.00  0.00    +0.189 C 
ATOM     10  O   UNL     1      -9.994   3.896 -17.276  0.00  0.00    -0.287 OA
ATOM     11  C   UNL     1     -11.011   1.711 -16.814  0.00  0.00    +0.025 A 
ATOM     12  C   UNL     1      -9.808   1.000 -16.662  0.00  0.00    +0.012 A 
ENDROOT
BRANCH   8  13
ATOM     13  C   UNL     1     -13.630   6.090 -17.000  0.00  0.00    -0.024 A 
ATOM     14  C   UNL     1     -13.623   7.279 -17.741  0.00  0.00    +0.011 A 
ATOM     15  C   UNL     1     -14.715   8.155 -17.694  0.00  0.00    +0.046 A 
ATOM     16  C   UNL     1     -15.807   7.850 -16.885  0.00  0.00    +0.121 A 
ATOM     17  C   UNL     1     -15.847   6.650 -16.180  0.00  0.00    +0.046 A 
ATOM     18  C   UNL     1     -14.753   5.782 -16.223  0.00  0.00    +0.011 A 
BRANCH  16  19
ATOM     19  O   UNL     1     -16.873   8.702 -16.748  0.00  0.00    -0.492 OA
BRANCH  19  20
ATOM     20  C   UNL     1     -16.487  10.074 -16.506  0.00  0.00    +0.225 C 
ATOM     21  C   UNL     1     -16.307  10.351 -15.043  0.00  0.00    +0.048 C 
ENDBRANCH  19  20
ENDBRANCH  16  19
ENDBRANCH   8  13
TORSDOF 3
ENDMDL
MODEL 5
REMARK VINA RESULT:      -7.1      3.528      4.273
REMARK  Name = min_compound952.pdb
REMARK  4 active torsions:
REMARK  status: ('A' for Active; 'I' for Inactive)
REMARK    1  A    between atoms: _12  and  _19
REMARK    2  A    between atoms: _17  and  _18
REMARK    3  A    between atoms: _18  and  _20
REMARK    4  A    between atoms: _20  and  _21
REMARK                            x       y       z     vdW  Elec       q    Type
REMARK                         _______ _______ _______ _____ _____    ______ ____
ROOT
ATOM      1  C   UNL     1      -9.303   0.535 -17.364  0.00  0.00    +0.001 A 
ATOM      2  C   UNL     1     -10.036  -0.649 -17.380  0.00  0.00    +0.000 A 
ATOM      3  C   UNL     1     -11.385  -0.634 -17.026  0.00  0.00    +0.004 A 
ATOM      4  C   UNL     1     -12.015   0.570 -16.665  0.00  0.00    -0.036 A 
ATOM      5  C   UNL     1     -13.463   0.570 -16.244  0.00  0.00    +0.040 C 
ATOM      6  C   UNL     1     -14.147   1.921 -16.467  0.00  0.00    +0.043 C 
ATOM      7  C   UNL     1     -13.374   3.054 -15.829  0.00  0.00    +0.001 C 
ATOM      8  C   UNL     1     -13.898   3.948 -14.961  0.00  0.00    +0.015 C 
ATOM      9  C   UNL     1     -11.943   3.045 -16.225  0.00  0.00    +0.189 C 
ATOM     10  O   UNL     1     -11.405   4.188 -16.248  0.00  0.00    -0.287 OA
ATOM     11  C   UNL     1     -11.280   1.769 -16.637  0.00  0.00    +0.025 A 
ATOM     12  C   UNL     1      -9.921   1.731 -16.995  0.00  0.00    +0.012 A 
ENDROOT
BRANCH   8  13
ATOM     13  C   UNL     1     -15.281   4.105 -14.494  0.00  0.00    -0.024 A 
ATOM     14  C   UNL     1     -15.886   5.362 -14.363  0.00  0.00    +0.011 A 
ATOM     15  C   UNL     1     -17.151   5.486 -13.774  0.00  0.00    +0.046 A 
ATOM     16  C   UNL     1     -17.801   4.352 -13.292  0.00  0.00    +0.121 A 
ATOM     17  C   UNL     1     -17.231   3.092 -13.458  0.00  0.00    +0.046 A 
ATOM     18  C   UNL     1     -15.967   2.972 -14.040  0.00  0.00    +0.011 A 
BRANCH  16  19
ATOM     19  O   UNL     1     -19.008   4.422 -12.646  0.00  0.00    -0.492 OA
BRANCH  19  20
ATOM     20  C   UNL     1     -18.995   3.818 -11.333  0.00  0.00    +0.225 C 
ATOM     21  C   UNL     1     -18.768   4.836 -10.255  0.00  0.00    +0.048 C 
ENDBRANCH  19  20
ENDBRANCH  16  19
ENDBRANCH   8  13
TORSDOF 3
ENDMDL
MODEL 6
REMARK VINA RESULT:      -7.1      2.801      7.736
REMARK  Name = min_compound952.pdb
REMARK  4 active torsions:
REMARK  status: ('A' for Active; 'I' for Inactive)
REMARK    1  A    between atoms: _12  and  _19
REMARK    2  A    between atoms: _17  and  _18
REMARK    3  A    between atoms: _18  and  _20
REMARK    4  A    between atoms: _20  and  _21
REMARK                            x       y       z     vdW  Elec       q    Type
REMARK                         _______ _______ _______ _____ _____    ______ ____
ROOT
ATOM      1  C   UNL     1     -19.164   5.697 -13.660  0.00  0.00    +0.001 A 
ATOM      2  C   UNL     1     -19.353   4.373 -13.273  0.00  0.00    +0.000 A 
ATOM      3  C   UNL     1     -18.354   3.430 -13.515  0.00  0.00    +0.004 A 
ATOM      4  C   UNL     1     -17.151   3.808 -14.138  0.00  0.00    -0.036 A 
ATOM      5  C   UNL     1     -16.094   2.774 -14.434  0.00  0.00    +0.040 C 
ATOM      6  C   UNL     1     -14.688   3.372 -14.531  0.00  0.00    +0.043 C 
ATOM      7  C   UNL     1     -14.636   4.527 -15.506  0.00  0.00    +0.001 C 
ATOM      8  C   UNL     1     -13.770   4.621 -16.539  0.00  0.00    +0.015 C 
ATOM      9  C   UNL     1     -15.689   5.538 -15.230  0.00  0.00    +0.189 C 
ATOM     10  O   UNL     1     -15.372   6.717 -15.555  0.00  0.00    -0.287 OA
ATOM     11  C   UNL     1     -16.956   5.141 -14.541  0.00  0.00    +0.025 A 
ATOM     12  C   UNL     1     -17.977   6.075 -14.290  0.00  0.00    +0.012 A 
ENDROOT
BRANCH   8  13
ATOM     13  C   UNL     1     -12.669   3.730 -16.927  0.00  0.00    -0.024 A 
ATOM     14  C   UNL     1     -12.863   2.627 -17.768  0.00  0.00    +0.011 A 
ATOM     15  C   UNL     1     -11.826   1.714 -17.997  0.00  0.00    +0.046 A 
ATOM     16  C   UNL     1     -10.598   1.893 -17.363  0.00  0.00    +0.121 A 
ATOM     17  C   UNL     1     -10.377   3.010 -16.561  0.00  0.00    +0.046 A 
ATOM     18  C   UNL     1     -11.416   3.915 -16.330  0.00  0.00    +0.011 A 
BRANCH  16  19
ATOM     19  O   UNL     1      -9.571   0.995 -17.496  0.00  0.00    -0.492 OA
BRANCH  19  20
ATOM     20  C   UNL     1      -9.959  -0.371 -17.221  0.00  0.00    +0.225 C 
ATOM     21  C   UNL     1      -9.918  -0.674 -15.752  0.00  0.00    +0.048 C 
ENDBRANCH  19  20
ENDBRANCH  16  19
ENDBRANCH   8  13
TORSDOF 3
ENDMDL
MODEL 7
REMARK VINA RESULT:      -7.0      4.173      8.556
REMARK  Name = min_compound952.pdb
REMARK  4 active torsions:
REMARK  status: ('A' for Active; 'I' for Inactive)
REMARK    1  A    between atoms: _12  and  _19
REMARK    2  A    between atoms: _17  and  _18
REMARK    3  A    between atoms: _18  and  _20
REMARK    4  A    between atoms: _20  and  _21
REMARK                            x       y       z     vdW  Elec       q    Type
REMARK                         _______ _______ _______ _____ _____    ______ ____
ROOT
ATOM      1  C   UNL     1     -18.393   7.170  -9.568  0.00  0.00    +0.001 A 
ATOM      2  C   UNL     1     -17.715   6.386  -8.638  0.00  0.00    +0.000 A 
ATOM      3  C   UNL     1     -16.719   5.508  -9.065  0.00  0.00    +0.004 A 
ATOM      4  C   UNL     1     -16.385   5.416 -10.427  0.00  0.00    -0.036 A 
ATOM      5  C   UNL     1     -15.337   4.433 -10.885  0.00  0.00    +0.040 C 
ATOM      6  C   UNL     1     -14.671   4.844 -12.201  0.00  0.00    +0.043 C 
ATOM      7  C   UNL     1     -15.691   5.125 -13.282  0.00  0.00    +0.001 C 
ATOM      8  C   UNL     1     -15.691   4.550 -14.506  0.00  0.00    +0.015 C 
ATOM      9  C   UNL     1     -16.737   6.076 -12.829  0.00  0.00    +0.189 C 
ATOM     10  O   UNL     1     -17.225   6.787 -13.752  0.00  0.00    -0.287 OA
ATOM     11  C   UNL     1     -17.072   6.196 -11.375  0.00  0.00    +0.025 A 
ATOM     12  C   UNL     1     -18.074   7.073 -10.924  0.00  0.00    +0.012 A 
ENDROOT
BRANCH   8  13
ATOM     13  C   UNL     1     -14.726   3.622 -15.108  0.00  0.00    -0.024 A 
ATOM     14  C   UNL     1     -13.405   3.996 -15.387  0.00  0.00    +0.011 A 
ATOM     15  C   UNL     1     -12.556   3.138 -16.097  0.00  0.00    +0.046 A 
ATOM     16  C   UNL     1     -13.038   1.911 -16.550  0.00  0.00    +0.121 A 
ATOM     17  C   UNL     1     -14.334   1.508 -16.239  0.00  0.00    +0.046 A 
ATOM     18  C   UNL     1     -15.181   2.369 -15.536  0.00  0.00    +0.011 A 
BRANCH  16  19
ATOM     19  O   UNL     1     -12.273   1.062 -17.307  0.00  0.00    -0.492 OA
BRANCH  19  20
ATOM     20  C   UNL     1     -11.897  -0.149 -16.612  0.00  0.00    +0.225 C 
ATOM     21  C   UNL     1     -10.533  -0.037 -15.998  0.00  0.00    +0.048 C 
ENDBRANCH  19  20
ENDBRANCH  16  19
ENDBRANCH   8  13
TORSDOF 3
ENDMDL
MODEL 8
REMARK VINA RESULT:      -6.9      1.753      8.089
REMARK  Name = min_compound952.pdb
REMARK  4 active torsions:
REMARK  status: ('A' for Active; 'I' for Inactive)
REMARK    1  A    between atoms: _12  and  _19
REMARK    2  A    between atoms: _17  and  _18
REMARK    3  A    between atoms: _18  and  _20
REMARK    4  A    between atoms: _20  and  _21
REMARK                            x       y       z     vdW  Elec       q    Type
REMARK                         _______ _______ _______ _____ _____    ______ ____
ROOT
ATOM      1  C   UNL     1     -16.768   9.326 -17.691  0.00  0.00    +0.001 A 
ATOM      2  C   UNL     1     -17.766   8.527 -17.142  0.00  0.00    +0.000 A 
ATOM      3  C   UNL     1     -17.464   7.232 -16.718  0.00  0.00    +0.004 A 
ATOM      4  C   UNL     1     -16.156   6.731 -16.831  0.00  0.00    -0.036 A 
ATOM      5  C   UNL     1     -15.848   5.317 -16.409  0.00  0.00    +0.040 C 
ATOM      6  C   UNL     1     -14.379   5.118 -16.022  0.00  0.00    +0.043 C 
ATOM      7  C   UNL     1     -13.443   5.599 -17.107  0.00  0.00    +0.001 C 
ATOM      8  C   UNL     1     -12.462   4.853 -17.662  0.00  0.00    +0.015 C 
ATOM      9  C   UNL     1     -13.756   6.985 -17.540  0.00  0.00    +0.189 C 
ATOM     10  O   UNL     1     -12.755   7.639 -17.948  0.00  0.00    -0.287 OA
ATOM     11  C   UNL     1     -15.143   7.529 -17.394  0.00  0.00    +0.025 A 
ATOM     12  C   UNL     1     -15.469   8.829 -17.816  0.00  0.00    +0.012 A 
ENDROOT
BRANCH   8  13
ATOM     13  C   UNL     1     -12.015   3.493 -17.333  0.00  0.00    -0.024 A 
ATOM     14  C   UNL     1     -12.601   2.357 -17.906  0.00  0.00    +0.011 A 
ATOM     15  C   UNL     1     -12.255   1.075 -17.460  0.00  0.00    +0.046 A 
ATOM     16  C   UNL     1     -11.337   0.931 -16.422  0.00  0.00    +0.121 A 
ATOM     17  C   UNL     1     -10.713   2.051 -15.876  0.00  0.00    +0.046 A 
ATOM     18  C   UNL     1     -11.065   3.328 -16.318  0.00  0.00    +0.011 A 
BRANCH  16  19
ATOM     19  O   UNL     1     -11.013  -0.294 -15.900  0.00  0.00    -0.492 OA
BRANCH  19  20
ATOM     20  C   UNL     1      -9.645  -0.686 -16.158  0.00  0.00    +0.225 C 
ATOM     21  C   UNL     1      -9.408  -0.946 -17.616  0.00  0.00    +0.048 C 
ENDBRANCH  19  20
ENDBRANCH  16  19
ENDBRANCH   8  13
TORSDOF 3
ENDMDL
MODEL 9
REMARK VINA RESULT:      -6.7      4.752      6.975
REMARK  Name = min_compound952.pdb
REMARK  4 active torsions:
REMARK  status: ('A' for Active; 'I' for Inactive)
REMARK    1  A    between atoms: _12  and  _19
REMARK    2  A    between atoms: _17  and  _18
REMARK    3  A    between atoms: _18  and  _20
REMARK    4  A    between atoms: _20  and  _21
REMARK                            x       y       z     vdW  Elec       q    Type
REMARK                         _______ _______ _______ _____ _____    ______ ____
ROOT
ATOM      1  C   UNL     1     -12.548   7.007 -18.871  0.00  0.00    +0.001 A 
ATOM      2  C   UNL     1     -11.767   5.854 -18.858  0.00  0.00    +0.000 A 
ATOM      3  C   UNL     1     -12.015   4.859 -17.912  0.00  0.00    +0.004 A 
ATOM      4  C   UNL     1     -13.057   5.003 -16.980  0.00  0.00    -0.036 A 
ATOM      5  C   UNL     1     -13.292   3.942 -15.936  0.00  0.00    +0.040 C 
ATOM      6  C   UNL     1     -14.735   3.919 -15.424  0.00  0.00    +0.043 C 
ATOM      7  C   UNL     1     -15.183   5.283 -14.951  0.00  0.00    +0.001 C 
ATOM      8  C   UNL     1     -15.708   5.539 -13.732  0.00  0.00    +0.015 C 
ATOM      9  C   UNL     1     -14.935   6.336 -15.969  0.00  0.00    +0.189 C 
ATOM     10  O   UNL     1     -15.756   7.296 -15.932  0.00  0.00    -0.287 OA
ATOM     11  C   UNL     1     -13.845   6.169 -16.980  0.00  0.00    +0.025 A 
ATOM     12  C   UNL     1     -13.577   7.161 -17.939  0.00  0.00    +0.012 A 
ENDROOT
BRANCH   8  13
ATOM     13  C   UNL     1     -16.035   4.618 -12.637  0.00  0.00    -0.024 A 
ATOM     14  C   UNL     1     -17.052   3.660 -12.747  0.00  0.00    +0.011 A 
ATOM     15  C   UNL     1     -17.439   2.900 -11.636  0.00  0.00    +0.046 A 
ATOM     16  C   UNL     1     -16.822   3.115 -10.406  0.00  0.00    +0.121 A 
ATOM     17  C   UNL     1     -15.778   4.031 -10.294  0.00  0.00    +0.046 A 
ATOM     18  C   UNL     1     -15.399   4.792 -11.402  0.00  0.00    +0.011 A 
BRANCH  16  19
ATOM     19  O   UNL     1     -17.206   2.449  -9.271  0.00  0.00    -0.492 OA
BRANCH  19  20
ATOM     20  C   UNL     1     -16.316   2.658  -8.151  0.00  0.00    +0.225 C 
ATOM     21  C   UNL     1     -15.730   1.368  -7.659  0.00  0.00    +0.048 C 
ENDBRANCH  19  20
ENDBRANCH  16  19
ENDBRANCH   8  13
TORSDOF 3
ENDMDL
