MODEL 1
REMARK VINA RESULT:      -7.5      0.000      0.000
REMARK  Name = min_compound934.pdb
REMARK  3 active torsions:
REMARK  status: ('A' for Active; 'I' for Inactive)
REMARK    1  A    between atoms: _3  and  _16
REMARK    2  A    between atoms: _5  and  _22
REMARK    3  A    between atoms: _7  and  _9
REMARK                            x       y       z     vdW  Elec       q    Type
REMARK                         _______ _______ _______ _____ _____    ______ ____
ROOT
ATOM      1  N   UNL     1     -10.697   4.102 -17.050  0.00  0.00    -0.172 NA
ATOM      2  C   UNL     1     -11.536   3.055 -16.970  0.00  0.00    +0.094 A 
ATOM      3  C   UNL     1     -12.887   3.510 -16.888  0.00  0.00    +0.073 A 
ATOM      4  C   UNL     1     -12.824   4.883 -16.921  0.00  0.00    +0.121 A 
ATOM      5  N   UNL     1     -11.494   5.183 -17.019  0.00  0.00    -0.263 N 
ATOM      6  H   UNL     1     -11.088   6.114 -17.068  0.00  0.00    +0.190 HD
ENDROOT
BRANCH   2   7
ATOM      7  C   UNL     1     -11.042   1.670 -16.974  0.00  0.00    +0.002 A 
ATOM      8  C   UNL     1     -11.861   0.623 -16.518  0.00  0.00    +0.010 A 
ATOM      9  C   UNL     1     -11.405  -0.698 -16.516  0.00  0.00    +0.001 A 
ATOM     10  C   UNL     1     -10.122  -0.993 -16.970  0.00  0.00    +0.000 A 
ATOM     11  C   UNL     1      -9.296   0.032 -17.427  0.00  0.00    +0.001 A 
ATOM     12  C   UNL     1      -9.753   1.355 -17.428  0.00  0.00    +0.010 A 
ENDBRANCH   2   7
BRANCH   4  13
ATOM     13  N   UNL     1     -13.840   5.818 -16.873  0.00  0.00    -0.267 N 
ATOM     14  H   UNL     1     -14.685   5.543 -16.395  0.00  0.00    +0.157 HD
ATOM     15  C   UNL     1     -13.701   7.071 -17.453  0.00  0.00    +0.249 C 
ATOM     16  O   UNL     1     -12.683   7.435 -18.040  0.00  0.00    -0.270 OA
BRANCH  15  17
ATOM     17  C   UNL     1     -14.861   8.017 -17.348  0.00  0.00    +0.037 A 
ATOM     18  C   UNL     1     -15.223   8.683 -16.167  0.00  0.00    +0.014 A 
ATOM     19  C   UNL     1     -16.323   9.551 -16.154  0.00  0.00    +0.021 A 
ATOM     20  C   UNL     1     -17.065   9.760 -17.314  0.00  0.00    +0.041 A 
ATOM     21 CL   UNL     1     -18.412  10.827 -17.287  0.00  0.00    -0.084 Cl
ATOM     22  C   UNL     1     -16.719   9.107 -18.492  0.00  0.00    +0.021 A 
ATOM     23  C   UNL     1     -15.623   8.240 -18.508  0.00  0.00    +0.014 A 
ENDBRANCH  15  17
ENDBRANCH   4  13
TORSDOF 3
ENDMDL
MODEL 2
REMARK VINA RESULT:      -7.5      1.280      1.676
REMARK  Name = min_compound934.pdb
REMARK  3 active torsions:
REMARK  status: ('A' for Active; 'I' for Inactive)
REMARK    1  A    between atoms: _3  and  _16
REMARK    2  A    between atoms: _5  and  _22
REMARK    3  A    between atoms: _7  and  _9
REMARK                            x       y       z     vdW  Elec       q    Type
REMARK                         _______ _______ _______ _____ _____    ______ ____
ROOT
ATOM      1  N   UNL     1     -12.645   2.658 -18.715  0.00  0.00    -0.172 NA
ATOM      2  C   UNL     1     -12.248   2.369 -17.463  0.00  0.00    +0.094 A 
ATOM      3  C   UNL     1     -12.804   3.306 -16.540  0.00  0.00    +0.073 A 
ATOM      4  C   UNL     1     -13.554   4.177 -17.293  0.00  0.00    +0.121 A 
ATOM      5  N   UNL     1     -13.426   3.744 -18.584  0.00  0.00    -0.263 N 
ATOM      6  H   UNL     1     -13.855   4.162 -19.406  0.00  0.00    +0.190 HD
ENDROOT
BRANCH   2   7
ATOM      7  C   UNL     1     -11.367   1.227 -17.180  0.00  0.00    +0.002 A 
ATOM      8  C   UNL     1     -11.874   0.079 -16.547  0.00  0.00    +0.010 A 
ATOM      9  C   UNL     1     -11.048  -1.014 -16.272  0.00  0.00    +0.001 A 
ATOM     10  C   UNL     1      -9.702  -0.977 -16.624  0.00  0.00    +0.000 A 
ATOM     11  C   UNL     1      -9.181   0.153 -17.252  0.00  0.00    +0.001 A 
ATOM     12  C   UNL     1     -10.008   1.247 -17.528  0.00  0.00    +0.010 A 
ENDBRANCH   2   7
BRANCH   4  13
ATOM     13  N   UNL     1     -14.303   5.270 -16.901  0.00  0.00    -0.267 N 
ATOM     14  H   UNL     1     -15.141   5.078 -16.374  0.00  0.00    +0.157 HD
ATOM     15  C   UNL     1     -13.916   6.564 -17.217  0.00  0.00    +0.249 C 
ATOM     16  O   UNL     1     -12.899   6.830 -17.857  0.00  0.00    -0.270 OA
BRANCH  15  17
ATOM     17  C   UNL     1     -14.795   7.686 -16.747  0.00  0.00    +0.037 A 
ATOM     18  C   UNL     1     -15.367   8.642 -17.600  0.00  0.00    +0.014 A 
ATOM     19  C   UNL     1     -16.178   9.659 -17.078  0.00  0.00    +0.021 A 
ATOM     20  C   UNL     1     -16.422   9.729 -15.709  0.00  0.00    +0.041 A 
ATOM     21 CL   UNL     1     -17.417  10.981 -15.080  0.00  0.00    -0.084 Cl
ATOM     22  C   UNL     1     -15.862   8.789 -14.850  0.00  0.00    +0.021 A 
ATOM     23  C   UNL     1     -15.052   7.773 -15.367  0.00  0.00    +0.014 A 
ENDBRANCH  15  17
ENDBRANCH   4  13
TORSDOF 3
ENDMDL
MODEL 3
REMARK VINA RESULT:      -7.3      9.762     10.460
REMARK  Name = min_compound934.pdb
REMARK  3 active torsions:
REMARK  status: ('A' for Active; 'I' for Inactive)
REMARK    1  A    between atoms: _3  and  _16
REMARK    2  A    between atoms: _5  and  _22
REMARK    3  A    between atoms: _7  and  _9
REMARK                            x       y       z     vdW  Elec       q    Type
REMARK                         _______ _______ _______ _____ _____    ______ ____
ROOT
ATOM      1  N   UNL     1     -16.823   2.489  -6.085  0.00  0.00    -0.172 NA
ATOM      2  C   UNL     1     -15.796   1.629  -6.203  0.00  0.00    +0.094 A 
ATOM      3  C   UNL     1     -15.424   1.491  -7.575  0.00  0.00    +0.073 A 
ATOM      4  C   UNL     1     -16.275   2.307  -8.280  0.00  0.00    +0.121 A 
ATOM      5  N   UNL     1     -17.089   2.880  -7.342  0.00  0.00    -0.263 N 
ATOM      6  H   UNL     1     -17.839   3.543  -7.519  0.00  0.00    +0.190 HD
ENDROOT
BRANCH   2   7
ATOM      7  C   UNL     1     -15.203   0.973  -5.029  0.00  0.00    +0.002 A 
ATOM      8  C   UNL     1     -15.700  -0.263  -4.581  0.00  0.00    +0.010 A 
ATOM      9  C   UNL     1     -15.146  -0.899  -3.467  0.00  0.00    +0.001 A 
ATOM     10  C   UNL     1     -14.087  -0.309  -2.782  0.00  0.00    +0.000 A 
ATOM     11  C   UNL     1     -13.581   0.916  -3.212  0.00  0.00    +0.001 A 
ATOM     12  C   UNL     1     -14.135   1.553  -4.328  0.00  0.00    +0.010 A 
ENDBRANCH   2   7
BRANCH   4  13
ATOM     13  N   UNL     1     -16.350   2.547  -9.639  0.00  0.00    -0.267 N 
ATOM     14  H   UNL     1     -16.532   1.750 -10.229  0.00  0.00    +0.157 HD
ATOM     15  C   UNL     1     -16.183   3.822 -10.160  0.00  0.00    +0.249 C 
ATOM     16  O   UNL     1     -15.963   4.813  -9.466  0.00  0.00    -0.270 OA
BRANCH  15  17
ATOM     17  C   UNL     1     -16.282   3.981 -11.649  0.00  0.00    +0.037 A 
ATOM     18  C   UNL     1     -15.621   4.985 -12.374  0.00  0.00    +0.014 A 
ATOM     19  C   UNL     1     -15.767   5.064 -13.765  0.00  0.00    +0.021 A 
ATOM     20  C   UNL     1     -16.569   4.146 -14.440  0.00  0.00    +0.041 A 
ATOM     21 CL   UNL     1     -16.741   4.253 -16.147  0.00  0.00    -0.084 Cl
ATOM     22  C   UNL     1     -17.231   3.146 -13.736  0.00  0.00    +0.021 A 
ATOM     23  C   UNL     1     -17.088   3.065 -12.347  0.00  0.00    +0.014 A 
ENDBRANCH  15  17
ENDBRANCH   4  13
TORSDOF 3
ENDMDL
MODEL 4
REMARK VINA RESULT:      -7.2      9.772     10.527
REMARK  Name = min_compound934.pdb
REMARK  3 active torsions:
REMARK  status: ('A' for Active; 'I' for Inactive)
REMARK    1  A    between atoms: _3  and  _16
REMARK    2  A    between atoms: _5  and  _22
REMARK    3  A    between atoms: _7  and  _9
REMARK                            x       y       z     vdW  Elec       q    Type
REMARK                         _______ _______ _______ _____ _____    ______ ____
ROOT
ATOM      1  N   UNL     1     -16.832   2.479  -6.075  0.00  0.00    -0.172 NA
ATOM      2  C   UNL     1     -15.819   1.603  -6.198  0.00  0.00    +0.094 A 
ATOM      3  C   UNL     1     -15.485   1.426  -7.575  0.00  0.00    +0.073 A 
ATOM      4  C   UNL     1     -16.345   2.235  -8.278  0.00  0.00    +0.121 A 
ATOM      5  N   UNL     1     -17.127   2.841  -7.334  0.00  0.00    -0.263 N 
ATOM      6  H   UNL     1     -17.874   3.508  -7.508  0.00  0.00    +0.190 HD
ENDROOT
BRANCH   2   7
ATOM      7  C   UNL     1     -15.202   0.969  -5.024  0.00  0.00    +0.002 A 
ATOM      8  C   UNL     1     -14.050   1.522  -4.442  0.00  0.00    +0.010 A 
ATOM      9  C   UNL     1     -13.453   0.931  -3.325  0.00  0.00    +0.001 A 
ATOM     10  C   UNL     1     -13.999  -0.224  -2.773  0.00  0.00    +0.000 A 
ATOM     11  C   UNL     1     -15.142  -0.788  -3.336  0.00  0.00    +0.001 A 
ATOM     12  C   UNL     1     -15.740  -0.195  -4.455  0.00  0.00    +0.010 A 
ENDBRANCH   2   7
BRANCH   4  13
ATOM     13  N   UNL     1     -16.453   2.442  -9.640  0.00  0.00    -0.267 N 
ATOM     14  H   UNL     1     -16.645   1.630 -10.207  0.00  0.00    +0.157 HD
ATOM     15  C   UNL     1     -16.305   3.705 -10.195  0.00  0.00    +0.249 C 
ATOM     16  O   UNL     1     -16.072   4.713  -9.531  0.00  0.00    -0.270 OA
BRANCH  15  17
ATOM     17  C   UNL     1     -16.439   3.828 -11.685  0.00  0.00    +0.037 A 
ATOM     18  C   UNL     1     -17.265   3.006 -12.467  0.00  0.00    +0.014 A 
ATOM     19  C   UNL     1     -17.333   3.187 -13.854  0.00  0.00    +0.021 A 
ATOM     20  C   UNL     1     -16.581   4.186 -14.469  0.00  0.00    +0.041 A 
ATOM     21 CL   UNL     1     -16.671   4.399 -16.172  0.00  0.00    -0.084 Cl
ATOM     22  C   UNL     1     -15.757   5.008 -13.708  0.00  0.00    +0.021 A 
ATOM     23  C   UNL     1     -15.687   4.829 -12.323  0.00  0.00    +0.014 A 
ENDBRANCH  15  17
ENDBRANCH   4  13
TORSDOF 3
ENDMDL
MODEL 5
REMARK VINA RESULT:      -7.0      3.603      8.847
REMARK  Name = min_compound934.pdb
REMARK  3 active torsions:
REMARK  status: ('A' for Active; 'I' for Inactive)
REMARK    1  A    between atoms: _3  and  _16
REMARK    2  A    between atoms: _5  and  _22
REMARK    3  A    between atoms: _7  and  _9
REMARK                            x       y       z     vdW  Elec       q    Type
REMARK                         _______ _______ _______ _____ _____    ______ ____
ROOT
ATOM      1  N   UNL     1     -13.620   7.741 -18.166  0.00  0.00    -0.172 NA
ATOM      2  C   UNL     1     -14.484   7.628 -17.142  0.00  0.00    +0.094 A 
ATOM      3  C   UNL     1     -14.237   6.423 -16.417  0.00  0.00    +0.073 A 
ATOM      4  C   UNL     1     -13.183   5.812 -17.052  0.00  0.00    +0.121 A 
ATOM      5  N   UNL     1     -12.853   6.641 -18.088  0.00  0.00    -0.263 N 
ATOM      6  H   UNL     1     -12.110   6.492 -18.767  0.00  0.00    +0.190 HD
ENDROOT
BRANCH   2   7
ATOM      7  C   UNL     1     -15.505   8.653 -16.881  0.00  0.00    +0.002 A 
ATOM      8  C   UNL     1     -16.214   9.235 -17.945  0.00  0.00    +0.010 A 
ATOM      9  C   UNL     1     -17.188  10.210 -17.713  0.00  0.00    +0.001 A 
ATOM     10  C   UNL     1     -17.469  10.619 -16.413  0.00  0.00    +0.000 A 
ATOM     11  C   UNL     1     -16.776  10.053 -15.344  0.00  0.00    +0.001 A 
ATOM     12  C   UNL     1     -15.801   9.077 -15.577  0.00  0.00    +0.010 A 
ENDBRANCH   2   7
BRANCH   4  13
ATOM     13  N   UNL     1     -12.544   4.621 -16.763  0.00  0.00    -0.267 N 
ATOM     14  H   UNL     1     -12.159   4.529 -15.835  0.00  0.00    +0.157 HD
ATOM     15  C   UNL     1     -12.440   3.606 -17.703  0.00  0.00    +0.249 C 
ATOM     16  O   UNL     1     -12.901   3.688 -18.841  0.00  0.00    -0.270 OA
BRANCH  15  17
ATOM     17  C   UNL     1     -11.727   2.351 -17.293  0.00  0.00    +0.037 A 
ATOM     18  C   UNL     1     -11.720   1.171 -18.053  0.00  0.00    +0.014 A 
ATOM     19  C   UNL     1     -11.028   0.042 -17.598  0.00  0.00    +0.021 A 
ATOM     20  C   UNL     1     -10.341   0.081 -16.387  0.00  0.00    +0.041 A 
ATOM     21 CL   UNL     1      -9.496  -1.311 -15.837  0.00  0.00    -0.084 Cl
ATOM     22  C   UNL     1     -10.339   1.242 -15.621  0.00  0.00    +0.021 A 
ATOM     23  C   UNL     1     -11.029   2.371 -16.073  0.00  0.00    +0.014 A 
ENDBRANCH  15  17
ENDBRANCH   4  13
TORSDOF 3
ENDMDL
MODEL 6
REMARK VINA RESULT:      -7.0     11.398     13.218
REMARK  Name = min_compound934.pdb
REMARK  3 active torsions:
REMARK  status: ('A' for Active; 'I' for Inactive)
REMARK    1  A    between atoms: _3  and  _16
REMARK    2  A    between atoms: _5  and  _22
REMARK    3  A    between atoms: _7  and  _9
REMARK                            x       y       z     vdW  Elec       q    Type
REMARK                         _______ _______ _______ _____ _____    ______ ____
ROOT
ATOM      1  N   UNL     1     -17.042   4.293  -8.485  0.00  0.00    -0.172 NA
ATOM      2  C   UNL     1     -16.543   3.353  -9.306  0.00  0.00    +0.094 A 
ATOM      3  C   UNL     1     -16.300   2.146  -8.585  0.00  0.00    +0.073 A 
ATOM      4  C   UNL     1     -16.675   2.400  -7.288  0.00  0.00    +0.121 A 
ATOM      5  N   UNL     1     -17.111   3.695  -7.284  0.00  0.00    -0.263 N 
ATOM      6  H   UNL     1     -17.465   4.210  -6.481  0.00  0.00    +0.190 HD
ENDROOT
BRANCH   2   7
ATOM      7  C   UNL     1     -16.314   3.622 -10.733  0.00  0.00    +0.002 A 
ATOM      8  C   UNL     1     -15.298   4.505 -11.135  0.00  0.00    +0.010 A 
ATOM      9  C   UNL     1     -15.068   4.770 -12.488  0.00  0.00    +0.001 A 
ATOM     10  C   UNL     1     -15.852   4.156 -13.461  0.00  0.00    +0.000 A 
ATOM     11  C   UNL     1     -16.864   3.277 -13.082  0.00  0.00    +0.001 A 
ATOM     12  C   UNL     1     -17.094   3.012 -11.727  0.00  0.00    +0.010 A 
ENDBRANCH   2   7
BRANCH   4  13
ATOM     13  N   UNL     1     -16.648   1.575  -6.179  0.00  0.00    -0.267 N 
ATOM     14  H   UNL     1     -17.540   1.275  -5.817  0.00  0.00    +0.157 HD
ATOM     15  C   UNL     1     -15.451   1.182  -5.597  0.00  0.00    +0.249 C 
ATOM     16  O   UNL     1     -14.348   1.531  -6.016  0.00  0.00    -0.270 OA
BRANCH  15  17
ATOM     17  C   UNL     1     -15.525   0.286  -4.396  0.00  0.00    +0.037 A 
ATOM     18  C   UNL     1     -16.712  -0.296  -3.926  0.00  0.00    +0.014 A 
ATOM     19  C   UNL     1     -16.694  -1.123  -2.794  0.00  0.00    +0.021 A 
ATOM     20  C   UNL     1     -15.496  -1.373  -2.127  0.00  0.00    +0.041 A 
ATOM     21 CL   UNL     1     -15.486  -2.387  -0.740  0.00  0.00    -0.084 Cl
ATOM     22  C   UNL     1     -14.312  -0.802  -2.580  0.00  0.00    +0.021 A 
ATOM     23  C   UNL     1     -14.327   0.023  -3.709  0.00  0.00    +0.014 A 
ENDBRANCH  15  17
ENDBRANCH   4  13
TORSDOF 3
ENDMDL
MODEL 7
REMARK VINA RESULT:      -6.9      5.010      8.913
REMARK  Name = min_compound934.pdb
REMARK  3 active torsions:
REMARK  status: ('A' for Active; 'I' for Inactive)
REMARK    1  A    between atoms: _3  and  _16
REMARK    2  A    between atoms: _5  and  _22
REMARK    3  A    between atoms: _7  and  _9
REMARK                            x       y       z     vdW  Elec       q    Type
REMARK                         _______ _______ _______ _____ _____    ______ ____
ROOT
ATOM      1  N   UNL     1     -16.363   5.786 -14.623  0.00  0.00    -0.172 NA
ATOM      2  C   UNL     1     -16.221   5.378 -13.349  0.00  0.00    +0.094 A 
ATOM      3  C   UNL     1     -15.304   4.286 -13.280  0.00  0.00    +0.073 A 
ATOM      4  C   UNL     1     -14.898   4.053 -14.572  0.00  0.00    +0.121 A 
ATOM      5  N   UNL     1     -15.560   4.977 -15.333  0.00  0.00    -0.263 N 
ATOM      6  H   UNL     1     -15.491   5.088 -16.341  0.00  0.00    +0.190 HD
ENDROOT
BRANCH   2   7
ATOM      7  C   UNL     1     -16.949   6.026 -12.249  0.00  0.00    +0.002 A 
ATOM      8  C   UNL     1     -18.106   6.779 -12.509  0.00  0.00    +0.010 A 
ATOM      9  C   UNL     1     -18.808   7.401 -11.473  0.00  0.00    +0.001 A 
ATOM     10  C   UNL     1     -18.364   7.279 -10.159  0.00  0.00    +0.000 A 
ATOM     11  C   UNL     1     -17.218   6.537  -9.881  0.00  0.00    +0.001 A 
ATOM     12  C   UNL     1     -16.515   5.914 -10.919  0.00  0.00    +0.010 A 
ENDBRANCH   2   7
BRANCH   4  13
ATOM     13  N   UNL     1     -14.017   3.111 -15.068  0.00  0.00    -0.267 N 
ATOM     14  H   UNL     1     -14.112   2.172 -14.712  0.00  0.00    +0.157 HD
ATOM     15  C   UNL     1     -13.053   3.444 -16.008  0.00  0.00    +0.249 C 
ATOM     16  O   UNL     1     -12.913   4.579 -16.462  0.00  0.00    -0.270 OA
BRANCH  15  17
ATOM     17  C   UNL     1     -12.142   2.352 -16.485  0.00  0.00    +0.037 A 
ATOM     18  C   UNL     1     -10.813   2.559 -16.887  0.00  0.00    +0.014 A 
ATOM     19  C   UNL     1     -10.029   1.482 -17.320  0.00  0.00    +0.021 A 
ATOM     20  C   UNL     1     -10.562   0.196 -17.355  0.00  0.00    +0.041 A 
ATOM     21 CL   UNL     1      -9.592  -1.119 -17.889  0.00  0.00    -0.084 Cl
ATOM     22  C   UNL     1     -11.877  -0.027 -16.961  0.00  0.00    +0.021 A 
ATOM     23  C   UNL     1     -12.663   1.046 -16.529  0.00  0.00    +0.014 A 
ENDBRANCH  15  17
ENDBRANCH   4  13
TORSDOF 3
ENDMDL
MODEL 8
REMARK VINA RESULT:      -6.8     11.693     13.440
REMARK  Name = min_compound934.pdb
REMARK  3 active torsions:
REMARK  status: ('A' for Active; 'I' for Inactive)
REMARK    1  A    between atoms: _3  and  _16
REMARK    2  A    between atoms: _5  and  _22
REMARK    3  A    between atoms: _7  and  _9
REMARK                            x       y       z     vdW  Elec       q    Type
REMARK                         _______ _______ _______ _____ _____    ______ ____
ROOT
ATOM      1  N   UNL     1     -18.002   3.126  -8.730  0.00  0.00    -0.172 NA
ATOM      2  C   UNL     1     -16.830   2.868  -9.337  0.00  0.00    +0.094 A 
ATOM      3  C   UNL     1     -16.055   1.965  -8.548  0.00  0.00    +0.073 A 
ATOM      4  C   UNL     1     -16.813   1.690  -7.435  0.00  0.00    +0.121 A 
ATOM      5  N   UNL     1     -17.965   2.408  -7.595  0.00  0.00    -0.263 N 
ATOM      6  H   UNL     1     -18.752   2.437  -6.952  0.00  0.00    +0.190 HD
ENDROOT
BRANCH   2   7
ATOM      7  C   UNL     1     -16.484   3.475 -10.630  0.00  0.00    +0.002 A 
ATOM      8  C   UNL     1     -17.177   3.106 -11.795  0.00  0.00    +0.010 A 
ATOM      9  C   UNL     1     -16.858   3.674 -13.032  0.00  0.00    +0.001 A 
ATOM     10  C   UNL     1     -15.841   4.620 -13.123  0.00  0.00    +0.000 A 
ATOM     11  C   UNL     1     -15.143   4.998 -11.978  0.00  0.00    +0.001 A 
ATOM     12  C   UNL     1     -15.462   4.429 -10.740  0.00  0.00    +0.010 A 
ENDBRANCH   2   7
BRANCH   4  13
ATOM     13  N   UNL     1     -16.536   0.876  -6.354  0.00  0.00    -0.267 N 
ATOM     14  H   UNL     1     -16.612  -0.118  -6.505  0.00  0.00    +0.157 HD
ATOM     15  C   UNL     1     -16.172   1.404  -5.123  0.00  0.00    +0.249 C 
ATOM     16  O   UNL     1     -16.069   2.611  -4.908  0.00  0.00    -0.270 OA
BRANCH  15  17
ATOM     17  C   UNL     1     -15.892   0.438  -4.010  0.00  0.00    +0.037 A 
ATOM     18  C   UNL     1     -14.603   0.037  -3.627  0.00  0.00    +0.014 A 
ATOM     19  C   UNL     1     -14.429  -0.871  -2.574  0.00  0.00    +0.021 A 
ATOM     20  C   UNL     1     -15.535  -1.382  -1.898  0.00  0.00    +0.041 A 
ATOM     21 CL   UNL     1     -15.310  -2.496  -0.609  0.00  0.00    -0.084 Cl
ATOM     22  C   UNL     1     -16.819  -0.995  -2.266  0.00  0.00    +0.021 A 
ATOM     23  C   UNL     1     -16.996  -0.090  -3.317  0.00  0.00    +0.014 A 
ENDBRANCH  15  17
ENDBRANCH   4  13
TORSDOF 3
ENDMDL
MODEL 9
REMARK VINA RESULT:      -6.7      9.790     11.531
REMARK  Name = min_compound934.pdb
REMARK  3 active torsions:
REMARK  status: ('A' for Active; 'I' for Inactive)
REMARK    1  A    between atoms: _3  and  _16
REMARK    2  A    between atoms: _5  and  _22
REMARK    3  A    between atoms: _7  and  _9
REMARK                            x       y       z     vdW  Elec       q    Type
REMARK                         _______ _______ _______ _____ _____    ______ ____
ROOT
ATOM      1  N   UNL     1     -19.093   3.458 -11.073  0.00  0.00    -0.172 NA
ATOM      2  C   UNL     1     -18.054   3.231 -11.898  0.00  0.00    +0.094 A 
ATOM      3  C   UNL     1     -16.879   2.939 -11.142  0.00  0.00    +0.073 A 
ATOM      4  C   UNL     1     -17.255   2.999  -9.822  0.00  0.00    +0.121 A 
ATOM      5  N   UNL     1     -18.586   3.312  -9.838  0.00  0.00    -0.263 N 
ATOM      6  H   UNL     1     -19.186   3.435  -9.026  0.00  0.00    +0.190 HD
ENDROOT
BRANCH   2   7
ATOM      7  C   UNL     1     -18.204   3.297 -13.358  0.00  0.00    +0.002 A 
ATOM      8  C   UNL     1     -17.126   2.967 -14.197  0.00  0.00    +0.010 A 
ATOM      9  C   UNL     1     -17.253   3.024 -15.588  0.00  0.00    +0.001 A 
ATOM     10  C   UNL     1     -18.460   3.414 -16.162  0.00  0.00    +0.000 A 
ATOM     11  C   UNL     1     -19.540   3.745 -15.346  0.00  0.00    +0.001 A 
ATOM     12  C   UNL     1     -19.413   3.687 -13.954  0.00  0.00    +0.010 A 
ENDBRANCH   2   7
BRANCH   4  13
ATOM     13  N   UNL     1     -16.508   2.799  -8.677  0.00  0.00    -0.267 N 
ATOM     14  H   UNL     1     -15.738   3.432  -8.524  0.00  0.00    +0.157 HD
ATOM     15  C   UNL     1     -16.805   1.778  -7.786  0.00  0.00    +0.249 C 
ATOM     16  O   UNL     1     -17.738   0.992  -7.945  0.00  0.00    -0.270 OA
BRANCH  15  17
ATOM     17  C   UNL     1     -15.935   1.641  -6.572  0.00  0.00    +0.037 A 
ATOM     18  C   UNL     1     -16.256   2.173  -5.314  0.00  0.00    +0.014 A 
ATOM     19  C   UNL     1     -15.386   2.000  -4.230  0.00  0.00    +0.021 A 
ATOM     20  C   UNL     1     -14.194   1.297  -4.392  0.00  0.00    +0.041 A 
ATOM     21 CL   UNL     1     -13.134   1.091  -3.055  0.00  0.00    -0.084 Cl
ATOM     22  C   UNL     1     -13.861   0.763  -5.632  0.00  0.00    +0.021 A 
ATOM     23  C   UNL     1     -14.727   0.935  -6.716  0.00  0.00    +0.014 A 
ENDBRANCH  15  17
ENDBRANCH   4  13
TORSDOF 3
ENDMDL
