REMARK  Name = min_compound99.pdb
REMARK  3 active torsions:
REMARK  status: ('A' for Active; 'I' for Inactive)
REMARK    1  A    between atoms: _8  and  _11
REMARK    2  A    between atoms: _9  and  _13
REMARK    3  A    between atoms: _10  and  _12
REMARK                            x       y       z     vdW  Elec       q    Type
REMARK                         _______ _______ _______ _____ _____    ______ ____
ROOT
ATOM      1  N   UNL     1       3.609   0.925   0.079  0.00  0.00    +0.006 NA
ATOM      2  C   UNL     1       4.734   1.572   0.035  0.00  0.00    +0.391 C 
ATOM      3  C   UNL     1       4.795   3.097   0.011  0.00  0.00    +0.137 C 
ATOM      4  C   UNL     1       3.493   3.767   0.014  0.00  0.00    +0.099 C 
ATOM      5  C   UNL     1       2.326   2.942   0.075  0.00  0.00    +0.078 C 
ATOM      6  N   UNL     1       5.917   3.751  -0.015  0.00  0.00    -0.269 NA
ATOM      7  C   UNL     1       7.055   2.979  -0.016  0.00  0.00    +0.172 C 
ATOM      8  C   UNL     1       8.372   3.680   0.000  0.00  0.00    +0.041 C 
ATOM      9  C   UNL     1       6.989   1.480  -0.017  0.00  0.00    +0.152 C 
ATOM     10  C   UNL     1       8.282   0.700  -0.049  0.00  0.00    +0.093 C 
ATOM     11  N   UNL     1       5.880   0.810   0.002  0.00  0.00    -0.042 NA
ATOM     12  C   UNL     1       2.415   1.599   0.117  0.00  0.00    +0.311 C 
ENDROOT
BRANCH  12  13
ATOM     13  N   UNL     1       1.263   0.851   0.187  0.00  0.00    -0.247 N 
ATOM     14  H   UNL     1       1.485  -0.106  -0.083  0.00  0.00    +0.288 HD
ATOM     15  H   UNL     1       0.501   1.236  -0.359  0.00  0.00    +0.288 HD
ENDBRANCH  12  13
TORSDOF 1
