REMARK  Name = min_compound2.pdb
REMARK  2 active torsions:
REMARK  status: ('A' for Active; 'I' for Inactive)
REMARK    1  A    between atoms: _1  and  _9
REMARK    2  A    between atoms: _2  and  _7
REMARK                            x       y       z     vdW  Elec       q    Type
REMARK                         _______ _______ _______ _____ _____    ______ ____
ROOT
ATOM      1  C   UNL     1      -2.223  -3.650   0.000  0.00  0.00    -0.035 A 
ATOM      2  C   UNL     1      -2.223  -2.150   0.000  0.00  0.00    +0.044 C 
ATOM      3  C   UNL     1      -3.430  -4.370   0.049  0.00  0.00    +0.024 A 
ATOM      4  C   UNL     1      -3.398  -5.756  -0.014  0.00  0.00    +0.111 A 
ATOM      5  N   UNL     1      -2.263  -6.472  -0.131  0.00  0.00    -0.262 NA
ATOM      6  C   UNL     1      -1.105  -5.767  -0.190  0.00  0.00    +0.124 A 
ATOM      7  C   UNL     1      -1.026  -4.379  -0.110  0.00  0.00    +0.057 A 
ENDROOT
BRANCH   7   8
ATOM      8  C   UNL     1       0.327  -3.783  -0.179  0.00  0.00    +0.243 C 
ATOM      9  N   UNL     1       0.573  -2.676   0.584  0.00  0.00    -0.325 N 
ATOM     10  H   UNL     1      -0.039  -2.388   1.334  0.00  0.00    +0.145 HD
ATOM     11  H   UNL     1       1.533  -2.355   0.610  0.00  0.00    +0.145 HD
ATOM     12  O   UNL     1       1.214  -4.289  -0.854  0.00  0.00    -0.270 OA
ENDBRANCH   7   8
TORSDOF 1
