REMARK  Name = min_compound949.pdb
REMARK  5 active torsions:
REMARK  status: ('A' for Active; 'I' for Inactive)
REMARK    1  A    between atoms: _1  and  _18
REMARK    2  A    between atoms: _2  and  _17
REMARK    3  A    between atoms: _3  and  _19
REMARK    4  A    between atoms: _10  and  _16
REMARK    5  A    between atoms: _16  and  _17
REMARK                            x       y       z     vdW  Elec       q    Type
REMARK                         _______ _______ _______ _____ _____    ______ ____
ROOT
ATOM      1  C   UNL     1      -4.644   4.752  -1.597  0.00  0.00    +0.049 A 
ATOM      2  C   UNL     1      -5.636   4.061  -2.508  0.00  0.00    +0.066 C 
ATOM      3  C   UNL     1      -3.469   3.961  -1.048  0.00  0.00    +0.035 A 
ATOM      4  C   UNL     1      -2.619   4.687  -0.293  0.00  0.00    +0.220 A 
ATOM      5  N   UNL     1      -2.871   6.041  -0.042  0.00  0.00    -0.182 N 
ATOM      6  N   UNL     1      -2.107   6.882   0.709  0.00  0.00    -0.170 NA
ATOM      7  C   UNL     1      -2.770   8.040   0.662  0.00  0.00    +0.137 A 
ATOM      8  C   UNL     1      -3.944   7.968  -0.105  0.00  0.00    +0.069 A 
ATOM      9  C   UNL     1      -3.993   6.670  -0.556  0.00  0.00    +0.159 A 
ATOM     10  N   UNL     1      -4.882   6.013  -1.350  0.00  0.00    -0.232 NA
ENDROOT
BRANCH   4  11
ATOM     11  O   UNL     1      -1.479   4.126   0.269  0.00  0.00    -0.492 OA
ATOM     12  H   UNL     1      -1.042   4.859   0.757  0.00  0.00    +0.294 HD
ENDBRANCH   4  11
BRANCH   3  13
ATOM     13  C   UNL     1      -3.281   2.489  -1.325  0.00  0.00    +0.047 C 
BRANCH  13  14
ATOM     14  C   UNL     1      -3.263   1.594   0.000  0.00  0.00    +0.040 C 
BRANCH  14  15
ATOM     15  C   UNL     1      -5.287   1.594   0.000  0.00  0.00    -0.047 A 
ATOM     16  C   UNL     1      -5.887   0.405  -0.426  0.00  0.00    +0.003 A 
ATOM     17  C   UNL     1      -7.127   0.093   0.121  0.00  0.00    +0.000 A 
ATOM     18  C   UNL     1      -7.708   0.932   1.084  0.00  0.00    +0.000 A 
ATOM     19  C   UNL     1      -7.057   2.098   1.513  0.00  0.00    +0.000 A 
ATOM     20  C   UNL     1      -5.814   2.433   0.990  0.00  0.00    +0.003 A 
ENDBRANCH  14  15
ENDBRANCH  13  14
ENDBRANCH   3  13
TORSDOF 4
