REMARK  Name = min_compound968.pdb
REMARK  3 active torsions:
REMARK  status: ('A' for Active; 'I' for Inactive)
REMARK    1  A    between atoms: _6  and  _17
REMARK    2  A    between atoms: _11  and  _18
REMARK    3  A    between atoms: _16  and  _19
REMARK                            x       y       z     vdW  Elec       q    Type
REMARK                         _______ _______ _______ _____ _____    ______ ____
ROOT
ATOM      1  N   UNL     1       2.817   4.839  -0.288  0.00  0.00    -0.267 N 
ATOM      2  H   UNL     1       3.400   4.037  -0.076  0.00  0.00    +0.156 HD
ATOM      3  C   UNL     1       3.396   6.041   0.091  0.00  0.00    +0.308 C 
ATOM      4  N   UNL     1       4.728   6.066  -0.279  0.00  0.00    -0.268 N 
ATOM      5  H   UNL     1       5.048   5.282  -0.827  0.00  0.00    +0.156 HD
ATOM      6  O   UNL     1       2.808   6.924   0.700  0.00  0.00    -0.252 OA
ENDROOT
BRANCH   1  11
ATOM      7  C   UNL     1      -1.316   3.933   0.080  0.00  0.00    +0.003 A 
ATOM      8  C   UNL     1      -0.341   3.010   0.450  0.00  0.00    +0.022 A 
ATOM      9  C   UNL     1       1.012   3.330   0.305  0.00  0.00    +0.064 A 
ATOM     10 CL   UNL     1       2.178   2.138   0.778  0.00  0.00    -0.082 Cl
ATOM     11  C   UNL     1       1.419   4.582  -0.195  0.00  0.00    +0.072 A 
ATOM     12  C   UNL     1       0.422   5.479  -0.622  0.00  0.00    +0.064 A 
ATOM     13 CL   UNL     1       0.764   6.924  -1.516  0.00  0.00    -0.082 Cl
ATOM     14  C   UNL     1      -0.934   5.158  -0.465  0.00  0.00    +0.022 A 
ENDBRANCH   1  11
BRANCH   4  15
ATOM     15  C   UNL     1       5.639   7.126  -0.095  0.00  0.00    +0.053 A 
ATOM     16  C   UNL     1       6.940   6.953  -0.570  0.00  0.00    +0.026 A 
ATOM     17  C   UNL     1       7.876   7.978  -0.435  0.00  0.00    +0.025 A 
ATOM     18  C   UNL     1       7.488   9.166   0.174  0.00  0.00    +0.038 A 
ATOM     19  C   UNL     1       8.464  10.294   0.322  0.00  0.00    +0.065 C 
ATOM     20  N   UNL     1       6.240   9.358   0.653  0.00  0.00    -0.258 NA
ATOM     21  C   UNL     1       5.346   8.343   0.510  0.00  0.00    +0.134 A 
ENDBRANCH   4  15
TORSDOF 2
