REMARK  Name = min_compound980.pdb
REMARK  8 active torsions:
REMARK  status: ('A' for Active; 'I' for Inactive)
REMARK    1  A    between atoms: _3  and  _7
REMARK    2  A    between atoms: _6  and  _19
REMARK    3  A    between atoms: _8  and  _9
REMARK    4  A    between atoms: _8  and  _10
REMARK    5  A    between atoms: _9  and  _13
REMARK    6  A    between atoms: _10  and  _11
REMARK    7  A    between atoms: _19  and  _20
REMARK    8  A    between atoms: _19  and  _21
REMARK                            x       y       z     vdW  Elec       q    Type
REMARK                         _______ _______ _______ _____ _____    ______ ____
ROOT
ATOM      1  C   UNL     1      -7.342  -2.484  -0.029  0.00  0.00    +0.016 C 
ATOM      2  C   UNL     1      -5.946  -3.000   0.000  0.00  0.00    +0.014 C 
ENDROOT
BRANCH   1   4
ATOM      3  C   UNL     1      -9.683  -2.789   0.780  0.00  0.00    +0.010 A 
ATOM      4  C   UNL     1      -8.636  -3.227  -0.032  0.00  0.00    -0.025 A 
ATOM      5  C   UNL     1      -8.901  -4.337  -0.845  0.00  0.00    +0.010 A 
ATOM      6  C   UNL     1     -10.139  -5.025  -0.797  0.00  0.00    +0.023 A 
ATOM      7  C   UNL     1     -11.192  -4.605   0.027  0.00  0.00    +0.029 A 
ATOM      8  C   UNL     1     -10.929  -3.458   0.800  0.00  0.00    +0.023 A 
BRANCH   7   9
ATOM      9  N   UNL     1     -12.441  -5.250   0.000  0.00  0.00    -0.336 N 
ATOM     10  C   UNL     1     -12.441  -6.750   0.000  0.00  0.00    +0.129 C 
ATOM     11  C   UNL     1     -13.577  -4.599   0.653  0.00  0.00    +0.129 C 
ENDBRANCH   7   9
ENDBRANCH   1   4
BRANCH   2  12
ATOM     12  C   UNL     1      -4.850  -2.188   0.004  0.00  0.00    +0.190 C 
ATOM     13  O   UNL     1      -4.832  -0.916   0.006  0.00  0.00    -0.287 OA
BRANCH  12  14
ATOM     14  C   UNL     1      -3.527  -2.907   0.024  0.00  0.00    +0.022 A 
ATOM     15  C   UNL     1      -3.093  -3.686  -1.059  0.00  0.00    +0.012 A 
ATOM     16  C   UNL     1      -1.839  -4.304  -1.037  0.00  0.00    +0.001 A 
ATOM     17  C   UNL     1      -0.993  -4.130   0.058  0.00  0.00    +0.000 A 
ATOM     18  C   UNL     1      -1.400  -3.339   1.131  0.00  0.00    +0.001 A 
ATOM     19  C   UNL     1      -2.658  -2.733   1.113  0.00  0.00    +0.012 A 
ENDBRANCH  12  14
ENDBRANCH   2  12
BRANCH   2  20
ATOM     20  C   UNL     1      -5.946  -4.500   0.000  0.00  0.00    +0.117 C 
BRANCH  20  21
ATOM     21  N   UNL     1      -5.946  -6.000   0.000  0.00  0.00    -0.326 NA
ATOM     22  H   UNL     1      -6.427  -6.340  -0.833  0.00  0.00    +0.119 HD
ATOM     23  H   UNL     1      -4.984  -6.340   0.000  0.00  0.00    +0.119 HD
ENDBRANCH  20  21
ENDBRANCH   2  20
TORSDOF 6
