REMARK  Name = min_compound945.pdb
REMARK  8 active torsions:
REMARK  status: ('A' for Active; 'I' for Inactive)
REMARK    1  A    between atoms: _1  and  _20
REMARK    2  A    between atoms: _2  and  _21
REMARK    3  A    between atoms: _4  and  _12
REMARK    4  A    between atoms: _10  and  _16
REMARK    5  A    between atoms: _12  and  _13
REMARK    6  A    between atoms: _13  and  _15
REMARK    7  A    between atoms: _16  and  _17
REMARK    8  A    between atoms: _17  and  _19
REMARK                            x       y       z     vdW  Elec       q    Type
REMARK                         _______ _______ _______ _____ _____    ______ ____
ROOT
ATOM      1  C   UNL     1      -2.468   6.753  -0.184  0.00  0.00    +0.100 C 
ATOM      2  C   UNL     1      -1.216   7.523   0.118  0.00  0.00    +0.045 C 
ATOM      3  O   UNL     1      -2.401   6.003  -1.411  0.00  0.00    -0.361 OA
ATOM      4  C   UNL     1      -2.469   5.235  -0.195  0.00  0.00    +0.100 C 
ATOM      5  C   UNL     1      -1.219   4.455   0.089  0.00  0.00    +0.045 C 
ATOM      6  C   UNL     1      -3.754   4.485   0.016  0.00  0.00    +0.077 C 
ATOM      7  C   UNL     1      -5.017   5.269  -0.264  0.00  0.00    +0.005 A 
ATOM      8  C   UNL     1      -6.221   4.544  -0.478  0.00  0.00    +0.135 A 
ATOM      9  C   UNL     1      -7.386   5.283  -0.737  0.00  0.00    +0.050 A 
ATOM     10  C   UNL     1      -7.385   6.717  -0.734  0.00  0.00    +0.050 A 
ATOM     11  C   UNL     1      -6.218   7.453  -0.470  0.00  0.00    +0.135 A 
ATOM     12  C   UNL     1      -5.016   6.725  -0.258  0.00  0.00    +0.005 A 
ATOM     13  C   UNL     1      -3.753   7.502   0.036  0.00  0.00    +0.077 C 
ENDROOT
BRANCH   8  14
ATOM     14  O   UNL     1      -6.192   3.051  -0.480  0.00  0.00    -0.426 OA
BRANCH  14  15
ATOM     15  C   UNL     1      -7.245   2.250   0.000  0.00  0.00    +0.309 C 
ATOM     16  C   UNL     1      -7.245   0.750   0.000  0.00  0.00    +0.136 C 
ATOM     17  O   UNL     1      -8.253   2.777   0.489  0.00  0.00    -0.251 OA
ENDBRANCH  14  15
ENDBRANCH   8  14
BRANCH  11  18
ATOM     18  O   UNL     1      -6.187   8.947  -0.466  0.00  0.00    -0.426 OA
BRANCH  18  19
ATOM     19  C   UNL     1      -7.245   9.750   0.000  0.00  0.00    +0.309 C 
ATOM     20  C   UNL     1      -7.245  11.250   0.000  0.00  0.00    +0.136 C 
ATOM     21  O   UNL     1      -8.260   9.224   0.476  0.00  0.00    -0.251 OA
ENDBRANCH  18  19
ENDBRANCH  11  18
TORSDOF 4
