REMARK  Name = min_compound936.pdb
REMARK  3 active torsions:
REMARK  status: ('A' for Active; 'I' for Inactive)
REMARK    1  A    between atoms: _6  and  _19
REMARK    2  A    between atoms: _10  and  _17
REMARK    3  A    between atoms: _13  and  _18
REMARK                            x       y       z     vdW  Elec       q    Type
REMARK                         _______ _______ _______ _____ _____    ______ ____
ROOT
ATOM      1 CL   UNL     1      -0.251   4.205   2.789  0.00  0.00    -0.114 Cl
ATOM      2  C   UNL     1       0.736   4.531   1.383  0.00  0.00    +0.147 C 
ATOM      3  C   UNL     1       1.922   3.901   1.315  0.00  0.00    +0.034 C 
ATOM      4  C   UNL     1       2.873   4.024   0.000  0.00  0.00    -0.024 C 
ATOM      5  C   UNL     1       2.873   2.525   0.000  0.00  0.00    +0.011 C 
ATOM      6  C   UNL     1       4.187   3.803   0.471  0.00  0.00    +0.007 C 
ATOM      7  C   UNL     1       5.471   4.024   0.000  0.00  0.00    +0.008 C 
ATOM      8  C   UNL     1       5.471   5.524   0.000  0.00  0.00    +0.044 C 
ATOM      9  C   UNL     1       4.166   6.187   0.546  0.00  0.00    +0.185 C 
ATOM     10  O   UNL     1       4.423   7.562   0.291  0.00  0.00    -0.461 OA
ATOM     11  C   UNL     1       5.771   7.757   0.513  0.00  0.00    +0.311 C 
ATOM     12  O   UNL     1       6.305   8.854   0.572  0.00  0.00    -0.251 OA
ATOM     13  C   UNL     1       6.492   6.417   0.667  0.00  0.00    +0.101 C 
ATOM     14  C   UNL     1       7.845   6.399  -0.017  0.00  0.00    +0.019 C 
ATOM     15  C   UNL     1       2.873   5.524   0.000  0.00  0.00    +0.046 C 
ATOM     16  C   UNL     1       1.573   6.274   0.000  0.00  0.00    +0.061 C 
ATOM     17  C   UNL     1       1.573   7.774   0.000  0.00  0.00    +0.016 C 
ATOM     18  C   UNL     1       0.448   5.636   0.449  0.00  0.00    +0.154 C 
ATOM     19  O   UNL     1      -0.763   5.992   0.463  0.00  0.00    -0.296 OA
ENDROOT
TORSDOF 0
