REMARK  Name = min_compound960.pdb
REMARK  4 active torsions:
REMARK  status: ('A' for Active; 'I' for Inactive)
REMARK    1  A    between atoms: _1  and  _11
REMARK    2  A    between atoms: _9  and  _14
REMARK    3  A    between atoms: _10  and  _13
REMARK    4  A    between atoms: _11  and  _12
REMARK                            x       y       z     vdW  Elec       q    Type
REMARK                         _______ _______ _______ _____ _____    ______ ____
ROOT
ATOM      1  C   UNL     1       2.182   3.198  -0.326  0.00  0.00    +0.096 A 
ATOM      2  N   UNL     1       2.057   2.072  -1.048  0.00  0.00    -0.082 NA
ATOM      3  O   UNL     1       3.343   1.631  -1.302  0.00  0.00    -0.354 OA
ATOM      4  C   UNL     1       4.241   2.485  -0.741  0.00  0.00    +0.175 A 
ATOM      5  C   UNL     1       5.647   2.392  -0.766  0.00  0.00    +0.076 A 
ATOM      6  C   UNL     1       6.327   3.377  -0.146  0.00  0.00    +0.055 A 
ATOM      7  N   UNL     1       5.675   4.447   0.500  0.00  0.00    -0.310 N 
ATOM      8  C   UNL     1       6.454   5.518   1.112  0.00  0.00    +0.152 C 
ATOM      9  C   UNL     1       4.262   4.546   0.577  0.00  0.00    +0.264 A 
ATOM     10  O   UNL     1       3.675   5.443   1.173  0.00  0.00    -0.267 OA
ATOM     11  C   UNL     1       3.546   3.494  -0.110  0.00  0.00    +0.109 A 
ENDROOT
BRANCH   6  12
ATOM     12  C   UNL     1       7.798   3.283  -0.147  0.00  0.00    -0.001 A 
ATOM     13  C   UNL     1       8.446   2.451   0.778  0.00  0.00    +0.010 A 
ATOM     14  C   UNL     1       9.838   2.345   0.774  0.00  0.00    +0.001 A 
ATOM     15  C   UNL     1      10.591   3.067  -0.151  0.00  0.00    +0.000 A 
ATOM     16  C   UNL     1       9.954   3.895  -1.074  0.00  0.00    +0.001 A 
ATOM     17  C   UNL     1       8.560   3.999  -1.078  0.00  0.00    +0.010 A 
ENDBRANCH   6  12
BRANCH   1  18
ATOM     18  C   UNL     1       0.948   3.898   0.137  0.00  0.00    +0.056 C 
ATOM     19  C   UNL     1       0.841   5.350  -0.302  0.00  0.00    +0.010 C 
ENDBRANCH   1  18
TORSDOF 2
