REMARK  Name = min_compound912.pdb
REMARK  5 active torsions:
REMARK  status: ('A' for Active; 'I' for Inactive)
REMARK    1  A    between atoms: _2  and  _19
REMARK    2  A    between atoms: _4  and  _21
REMARK    3  A    between atoms: _12  and  _21
REMARK    4  A    between atoms: _16  and  _22
REMARK    5  A    between atoms: _19  and  _20
REMARK                            x       y       z     vdW  Elec       q    Type
REMARK                         _______ _______ _______ _____ _____    ______ ____
ROOT
ATOM      1  O   UNL     1      -1.881 -10.778  -1.220  0.00  0.00    -0.270 OA
ATOM      2  C   UNL     1      -0.869 -10.348  -0.670  0.00  0.00    +0.245 C 
ATOM      3  N   UNL     1       0.011 -11.233  -0.129  0.00  0.00    -0.297 N 
ATOM      4  H   UNL     1      -0.231 -12.198  -0.316  0.00  0.00    +0.150 HD
ATOM      5  C   UNL     1       1.360 -10.911   0.257  0.00  0.00    +0.087 C 
ATOM      6  C   UNL     1       1.994 -12.062   1.079  0.00  0.00    +0.037 C 
ATOM      7  C   UNL     1       3.148 -12.594   0.232  0.00  0.00    +0.003 C 
ATOM      8  C   UNL     1       3.601 -11.385  -0.564  0.00  0.00    +0.003 C 
ATOM      9  C   UNL     1       2.282 -10.746  -0.972  0.00  0.00    +0.037 C 
ATOM     10  S   UNL     1       1.289  -9.414   1.286  0.00  0.00    -0.084 S 
ATOM     11  C   UNL     1       0.388  -8.338   0.199  0.00  0.00    +0.077 C 
ATOM     12  C   UNL     1      -0.569  -8.880  -0.601  0.00  0.00    +0.055 C 
ENDROOT
BRANCH  11  13
ATOM     13  N   UNL     1       0.580  -6.948   0.273  0.00  0.00    -0.309 N 
ATOM     14  H   UNL     1      -0.193  -6.414  -0.117  0.00  0.00    +0.153 HD
BRANCH  13  15
ATOM     15  C   UNL     1       1.787  -6.223   0.106  0.00  0.00    +0.032 A 
ATOM     16  C   UNL     1       3.048  -6.814  -0.028  0.00  0.00    +0.023 A 
ATOM     17  C   UNL     1       4.201  -6.039  -0.165  0.00  0.00    +0.002 A 
ATOM     18  C   UNL     1       4.113  -4.653  -0.157  0.00  0.00    +0.003 A 
ATOM     19  C   UNL     1       2.873  -4.024   0.000  0.00  0.00    -0.049 A 
ATOM     20  C   UNL     1       2.873  -2.525   0.000  0.00  0.00    +0.044 C 
ATOM     21  C   UNL     1       1.722  -4.816   0.145  0.00  0.00    +0.026 A 
ENDBRANCH  13  15
ENDBRANCH  11  13
BRANCH  12  22
ATOM     22  C   UNL     1      -1.369  -8.041  -1.442  0.00  0.00    +0.121 C 
BRANCH  22  23
ATOM     23  N   UNL     1      -2.172  -7.173  -2.289  0.00  0.00    -0.326 NA
ATOM     24  H   UNL     1      -1.966  -7.369  -3.269  0.00  0.00    +0.119 HD
ATOM     25  H   UNL     1      -3.161  -7.343  -2.109  0.00  0.00    +0.119 HD
ENDBRANCH  22  23
ENDBRANCH  12  22
TORSDOF 4
