REMARK  Name = min_compound993.pdb
REMARK  8 active torsions:
REMARK  status: ('A' for Active; 'I' for Inactive)
REMARK    1  A    between atoms: _3  and  _17
REMARK    2  A    between atoms: _4  and  _18
REMARK    3  A    between atoms: _9  and  _14
REMARK    4  A    between atoms: _11  and  _13
REMARK    5  A    between atoms: _14  and  _17
REMARK    6  A    between atoms: _18  and  _19
REMARK    7  A    between atoms: _18  and  _20
REMARK    8  A    between atoms: _18  and  _21
REMARK                            x       y       z     vdW  Elec       q    Type
REMARK                         _______ _______ _______ _____ _____    ______ ____
ROOT
ATOM      1  N   UNL     1       1.979   7.200  -0.302  0.00  0.00    -0.216 N 
ATOM      2  H   UNL     1       2.481   6.815  -1.103  0.00  0.00    +0.174 HD
ENDROOT
BRANCH   1   4
ATOM      3  C   UNL     1       2.129   9.278   1.115  0.00  0.00    +0.025 A 
ATOM      4  C   UNL     1       2.254   8.590  -0.091  0.00  0.00    +0.048 A 
ATOM      5  C   UNL     1       2.483   9.333  -1.256  0.00  0.00    +0.025 A 
ATOM      6  C   UNL     1       2.603  10.724  -1.216  0.00  0.00    +0.006 A 
ATOM      7  C   UNL     1       2.498  11.424   0.000  0.00  0.00    -0.042 A 
ATOM      8  C   UNL     1       2.284  10.673   1.169  0.00  0.00    +0.006 A 
BRANCH   7   9
ATOM      9  C   UNL     1       2.498  12.924   0.000  0.00  0.00    -0.013 C 
ATOM     10  C   UNL     1       2.498  14.424   0.000  0.00  0.00    +0.015 C 
ATOM     11  C   UNL     1       0.998  12.924   0.000  0.00  0.00    +0.015 C 
ATOM     12  C   UNL     1       3.998  12.924   0.000  0.00  0.00    +0.015 C 
ENDBRANCH   7   9
ENDBRANCH   1   4
BRANCH   1  13
ATOM     13  S   UNL     1       1.920   6.014   0.889  0.00  0.00    +0.072 S 
ATOM     14  O   UNL     1       1.857   6.547   2.228  0.00  0.00    -0.150 OA
ATOM     15  O   UNL     1       2.918   5.038   0.502  0.00  0.00    -0.150 OA
BRANCH  13  16
ATOM     16  C   UNL     1       0.323   5.298   0.551  0.00  0.00    +0.109 A 
ATOM     17  C   UNL     1       0.218   3.947   0.219  0.00  0.00    +0.030 A 
ATOM     18  C   UNL     1      -1.036   3.409  -0.084  0.00  0.00    +0.024 A 
ATOM     19  C   UNL     1      -2.189   4.198  -0.020  0.00  0.00    +0.025 A 
ATOM     20  C   UNL     1      -2.058   5.563   0.261  0.00  0.00    +0.024 A 
ATOM     21  C   UNL     1      -0.810   6.113   0.569  0.00  0.00    +0.030 A 
BRANCH  19  22
ATOM     22  N   UNL     1      -3.416   3.685  -0.458  0.00  0.00    -0.358 N 
ATOM     23  H   UNL     1      -3.507   2.681  -0.338  0.00  0.00    +0.142 HD
ATOM     24  H   UNL     1      -4.223   4.187  -0.100  0.00  0.00    +0.142 HD
ENDBRANCH  19  22
ENDBRANCH  13  16
ENDBRANCH   1  13
TORSDOF 5
