MODEL 1
REMARK VINA RESULT:      -7.4      0.000      0.000
REMARK  Name = min_compound970.pdb
REMARK  2 active torsions:
REMARK  status: ('A' for Active; 'I' for Inactive)
REMARK    1  A    between atoms: _2  and  _17
REMARK    2  A    between atoms: _11  and  _12
REMARK                            x       y       z     vdW  Elec       q    Type
REMARK                         _______ _______ _______ _____ _____    ______ ____
ROOT
ATOM      1  C   UNL     1     -12.980   1.925 -19.169  0.00  0.00    +0.098 A 
ATOM      2  C   UNL     1     -12.353   2.097 -17.982  0.00  0.00    +0.053 A 
ATOM      3  N   UNL     1     -12.578   3.262 -17.248  0.00  0.00    -0.339 N 
ATOM      4  H   UNL     1     -12.146   3.328 -16.333  0.00  0.00    +0.167 HD
ATOM      5  C   UNL     1     -13.390   4.250 -17.690  0.00  0.00    +0.139 A 
ATOM      6  C   UNL     1     -13.756   5.476 -17.202  0.00  0.00    +0.079 A 
ATOM      7  C   UNL     1     -14.649   5.994 -18.173  0.00  0.00    +0.130 A 
ATOM      8  N   UNL     1     -14.831   5.147 -19.196  0.00  0.00    -0.159 NA
ATOM      9  N   UNL     1     -14.045   4.086 -18.892  0.00  0.00    -0.179 N 
ATOM     10  C   UNL     1     -13.915   2.954 -19.705  0.00  0.00    +0.275 A 
ATOM     11  O   UNL     1     -14.517   2.826 -20.764  0.00  0.00    -0.266 OA
ENDROOT
BRANCH   2  12
ATOM     12  C   UNL     1     -11.407   1.061 -17.436  0.00  0.00    -0.001 A 
ATOM     13  C   UNL     1     -10.017   1.125 -17.667  0.00  0.00    +0.010 A 
ATOM     14  C   UNL     1      -9.134   0.167 -17.155  0.00  0.00    +0.001 A 
ATOM     15  C   UNL     1      -9.615  -0.898 -16.405  0.00  0.00    +0.000 A 
ATOM     16  C   UNL     1     -10.978  -0.996 -16.162  0.00  0.00    +0.001 A 
ATOM     17  C   UNL     1     -11.859  -0.026 -16.663  0.00  0.00    +0.010 A 
ENDBRANCH   2  12
BRANCH   7  18
ATOM     18  C   UNL     1     -15.338   7.322 -18.119  0.00  0.00    +0.155 A 
ATOM     19  C   UNL     1     -15.057   8.366 -17.256  0.00  0.00    +0.051 A 
ATOM     20  C   UNL     1     -15.956   9.416 -17.569  0.00  0.00    +0.042 A 
ATOM     21  C   UNL     1     -16.734   8.953 -18.602  0.00  0.00    +0.196 A 
ATOM     22  O   UNL     1     -16.367   7.693 -18.943  0.00  0.00    -0.461 OA
ENDBRANCH   7  18
TORSDOF 2
ENDMDL
MODEL 2
REMARK VINA RESULT:      -7.3      2.535      2.745
REMARK  Name = min_compound970.pdb
REMARK  2 active torsions:
REMARK  status: ('A' for Active; 'I' for Inactive)
REMARK    1  A    between atoms: _2  and  _17
REMARK    2  A    between atoms: _11  and  _12
REMARK                            x       y       z     vdW  Elec       q    Type
REMARK                         _______ _______ _______ _____ _____    ______ ____
ROOT
ATOM      1  C   UNL     1     -11.926   3.733 -17.747  0.00  0.00    +0.098 A 
ATOM      2  C   UNL     1     -12.148   2.731 -16.866  0.00  0.00    +0.053 A 
ATOM      3  N   UNL     1     -13.150   2.870 -15.904  0.00  0.00    -0.339 N 
ATOM      4  H   UNL     1     -13.335   2.075 -15.304  0.00  0.00    +0.167 HD
ATOM      5  C   UNL     1     -13.903   3.990 -15.802  0.00  0.00    +0.139 A 
ATOM      6  C   UNL     1     -14.903   4.395 -14.959  0.00  0.00    +0.079 A 
ATOM      7  C   UNL     1     -15.258   5.687 -15.422  0.00  0.00    +0.130 A 
ATOM      8  N   UNL     1     -14.532   6.062 -16.484  0.00  0.00    -0.159 NA
ATOM      9  N   UNL     1     -13.696   5.016 -16.700  0.00  0.00    -0.179 N 
ATOM     10  C   UNL     1     -12.737   4.982 -17.719  0.00  0.00    +0.275 A 
ATOM     11  O   UNL     1     -12.581   5.901 -18.512  0.00  0.00    -0.266 OA
ENDROOT
BRANCH   2  12
ATOM     12  C   UNL     1     -11.331   1.467 -16.890  0.00  0.00    -0.001 A 
ATOM     13  C   UNL     1     -10.016   1.438 -17.398  0.00  0.00    +0.010 A 
ATOM     14  C   UNL     1      -9.251   0.265 -17.415  0.00  0.00    +0.001 A 
ATOM     15  C   UNL     1      -9.785  -0.924 -16.938  0.00  0.00    +0.000 A 
ATOM     16  C   UNL     1     -11.079  -0.935 -16.436  0.00  0.00    +0.001 A 
ATOM     17  C   UNL     1     -11.836   0.244 -16.405  0.00  0.00    +0.010 A 
ENDBRANCH   2  12
BRANCH   7  18
ATOM     18  C   UNL     1     -16.310   6.576 -14.836  0.00  0.00    +0.155 A 
ATOM     19  C   UNL     1     -16.772   6.564 -13.532  0.00  0.00    +0.051 A 
ATOM     20  C   UNL     1     -17.761   7.575 -13.433  0.00  0.00    +0.042 A 
ATOM     21  C   UNL     1     -17.847   8.143 -14.681  0.00  0.00    +0.196 A 
ATOM     22  O   UNL     1     -16.975   7.550 -15.533  0.00  0.00    -0.461 OA
ENDBRANCH   7  18
TORSDOF 2
ENDMDL
MODEL 3
REMARK VINA RESULT:      -7.3      8.328      9.040
REMARK  Name = min_compound970.pdb
REMARK  2 active torsions:
REMARK  status: ('A' for Active; 'I' for Inactive)
REMARK    1  A    between atoms: _2  and  _17
REMARK    2  A    between atoms: _11  and  _12
REMARK                            x       y       z     vdW  Elec       q    Type
REMARK                         _______ _______ _______ _____ _____    ______ ____
ROOT
ATOM      1  C   UNL     1     -17.720   2.156  -8.882  0.00  0.00    +0.098 A 
ATOM      2  C   UNL     1     -16.379   2.119  -8.705  0.00  0.00    +0.053 A 
ATOM      3  N   UNL     1     -15.568   3.015  -9.402  0.00  0.00    -0.339 N 
ATOM      4  H   UNL     1     -14.576   3.005  -9.195  0.00  0.00    +0.167 HD
ATOM      5  C   UNL     1     -16.072   3.917 -10.276  0.00  0.00    +0.139 A 
ATOM      6  C   UNL     1     -15.520   4.866 -11.094  0.00  0.00    +0.079 A 
ATOM      7  C   UNL     1     -16.628   5.468 -11.741  0.00  0.00    +0.130 A 
ATOM      8  N   UNL     1     -17.794   4.933 -11.350  0.00  0.00    -0.159 NA
ATOM      9  N   UNL     1     -17.437   3.975 -10.460  0.00  0.00    -0.179 N 
ATOM     10  C   UNL     1     -18.351   3.143  -9.802  0.00  0.00    +0.275 A 
ATOM     11  O   UNL     1     -19.561   3.223  -9.973  0.00  0.00    -0.266 OA
ENDROOT
BRANCH   2  12
ATOM     12  C   UNL     1     -15.736   1.123  -7.777  0.00  0.00    -0.001 A 
ATOM     13  C   UNL     1     -14.592   1.443  -7.016  0.00  0.00    +0.010 A 
ATOM     14  C   UNL     1     -13.995   0.520  -6.148  0.00  0.00    +0.001 A 
ATOM     15  C   UNL     1     -14.515  -0.760  -6.024  0.00  0.00    +0.000 A 
ATOM     16  C   UNL     1     -15.637  -1.113  -6.762  0.00  0.00    +0.001 A 
ATOM     17  C   UNL     1     -16.242  -0.182  -7.618  0.00  0.00    +0.010 A 
ENDBRANCH   2  12
BRANCH   7  18
ATOM     18  C   UNL     1     -16.569   6.572 -12.749  0.00  0.00    +0.155 A 
ATOM     19  C   UNL     1     -15.569   6.790 -13.681  0.00  0.00    +0.051 A 
ATOM     20  C   UNL     1     -15.935   7.944 -14.418  0.00  0.00    +0.042 A 
ATOM     21  C   UNL     1     -17.133   8.365 -13.894  0.00  0.00    +0.196 A 
ATOM     22  O   UNL     1     -17.525   7.543 -12.890  0.00  0.00    -0.461 OA
ENDBRANCH   7  18
TORSDOF 2
ENDMDL
MODEL 4
REMARK VINA RESULT:      -7.3     10.667     12.849
REMARK  Name = min_compound970.pdb
REMARK  2 active torsions:
REMARK  status: ('A' for Active; 'I' for Inactive)
REMARK    1  A    between atoms: _2  and  _17
REMARK    2  A    between atoms: _11  and  _12
REMARK                            x       y       z     vdW  Elec       q    Type
REMARK                         _______ _______ _______ _____ _____    ______ ____
ROOT
ATOM      1  C   UNL     1     -17.213   3.779  -8.358  0.00  0.00    +0.098 A 
ATOM      2  C   UNL     1     -16.316   3.252  -9.222  0.00  0.00    +0.053 A 
ATOM      3  N   UNL     1     -15.498   2.200  -8.808  0.00  0.00    -0.339 N 
ATOM      4  H   UNL     1     -14.885   1.785  -9.500  0.00  0.00    +0.167 HD
ATOM      5  C   UNL     1     -15.551   1.694  -7.554  0.00  0.00    +0.139 A 
ATOM      6  C   UNL     1     -14.864   0.713  -6.890  0.00  0.00    +0.079 A 
ATOM      7  C   UNL     1     -15.435   0.693  -5.593  0.00  0.00    +0.130 A 
ATOM      8  N   UNL     1     -16.415   1.597  -5.458  0.00  0.00    -0.159 NA
ATOM      9  N   UNL     1     -16.468   2.212  -6.665  0.00  0.00    -0.179 N 
ATOM     10  C   UNL     1     -17.354   3.252  -6.972  0.00  0.00    +0.275 A 
ATOM     11  O   UNL     1     -18.168   3.687  -6.168  0.00  0.00    -0.266 OA
ENDROOT
BRANCH   2  12
ATOM     12  C   UNL     1     -16.169   3.782 -10.624  0.00  0.00    -0.001 A 
ATOM     13  C   UNL     1     -15.183   4.731 -10.963  0.00  0.00    +0.010 A 
ATOM     14  C   UNL     1     -15.040   5.221 -12.268  0.00  0.00    +0.001 A 
ATOM     15  C   UNL     1     -15.892   4.786 -13.274  0.00  0.00    +0.000 A 
ATOM     16  C   UNL     1     -16.878   3.856 -12.976  0.00  0.00    +0.001 A 
ATOM     17  C   UNL     1     -17.008   3.356 -11.673  0.00  0.00    +0.010 A 
ENDBRANCH   2  12
BRANCH   7  18
ATOM     18  C   UNL     1     -15.035  -0.208  -4.467  0.00  0.00    +0.155 A 
ATOM     19  C   UNL     1     -14.596   0.180  -3.213  0.00  0.00    +0.051 A 
ATOM     20  C   UNL     1     -14.335  -1.006  -2.481  0.00  0.00    +0.042 A 
ATOM     21  C   UNL     1     -14.628  -2.046  -3.328  0.00  0.00    +0.196 A 
ATOM     22  O   UNL     1     -15.054  -1.576  -4.526  0.00  0.00    -0.461 OA
ENDBRANCH   7  18
TORSDOF 2
ENDMDL
MODEL 5
REMARK VINA RESULT:      -7.3      2.263      2.717
REMARK  Name = min_compound970.pdb
REMARK  2 active torsions:
REMARK  status: ('A' for Active; 'I' for Inactive)
REMARK    1  A    between atoms: _2  and  _17
REMARK    2  A    between atoms: _11  and  _12
REMARK                            x       y       z     vdW  Elec       q    Type
REMARK                         _______ _______ _______ _____ _____    ______ ____
ROOT
ATOM      1  C   UNL     1     -11.450   4.482 -17.588  0.00  0.00    +0.098 A 
ATOM      2  C   UNL     1     -12.111   3.431 -17.050  0.00  0.00    +0.053 A 
ATOM      3  N   UNL     1     -13.379   3.624 -16.500  0.00  0.00    -0.339 N 
ATOM      4  H   UNL     1     -13.873   2.804 -16.167  0.00  0.00    +0.167 HD
ATOM      5  C   UNL     1     -13.972   4.839 -16.462  0.00  0.00    +0.139 A 
ATOM      6  C   UNL     1     -15.161   5.306 -15.969  0.00  0.00    +0.079 A 
ATOM      7  C   UNL     1     -15.155   6.690 -16.273  0.00  0.00    +0.130 A 
ATOM      8  N   UNL     1     -14.039   7.062 -16.916  0.00  0.00    -0.159 NA
ATOM      9  N   UNL     1     -13.317   5.918 -17.015  0.00  0.00    -0.179 N 
ATOM     10  C   UNL     1     -12.054   5.843 -17.613  0.00  0.00    +0.275 A 
ATOM     11  O   UNL     1     -11.497   6.814 -18.109  0.00  0.00    -0.266 OA
ENDROOT
BRANCH   2  12
ATOM     12  C   UNL     1     -11.505   2.052 -17.021  0.00  0.00    -0.001 A 
ATOM     13  C   UNL     1     -12.260   0.914 -16.667  0.00  0.00    +0.010 A 
ATOM     14  C   UNL     1     -11.700  -0.370 -16.645  0.00  0.00    +0.001 A 
ATOM     15  C   UNL     1     -10.362  -0.555 -16.963  0.00  0.00    +0.000 A 
ATOM     16  C   UNL     1      -9.588   0.544 -17.311  0.00  0.00    +0.001 A 
ATOM     17  C   UNL     1     -10.154   1.826 -17.347  0.00  0.00    +0.010 A 
ENDBRANCH   2  12
BRANCH   7  18
ATOM     18  C   UNL     1     -16.235   7.672 -15.942  0.00  0.00    +0.155 A 
ATOM     19  C   UNL     1     -16.166   8.699 -15.017  0.00  0.00    +0.051 A 
ATOM     20  C   UNL     1     -17.417   9.366 -15.044  0.00  0.00    +0.042 A 
ATOM     21  C   UNL     1     -18.176   8.708 -15.981  0.00  0.00    +0.196 A 
ATOM     22  O   UNL     1     -17.472   7.687 -16.529  0.00  0.00    -0.461 OA
ENDBRANCH   7  18
TORSDOF 2
ENDMDL
MODEL 6
REMARK VINA RESULT:      -7.2      2.034      2.225
REMARK  Name = min_compound970.pdb
REMARK  2 active torsions:
REMARK  status: ('A' for Active; 'I' for Inactive)
REMARK    1  A    between atoms: _2  and  _17
REMARK    2  A    between atoms: _11  and  _12
REMARK                            x       y       z     vdW  Elec       q    Type
REMARK                         _______ _______ _______ _____ _____    ______ ____
ROOT
ATOM      1  C   UNL     1     -14.176   2.056 -16.206  0.00  0.00    +0.098 A 
ATOM      2  C   UNL     1     -12.941   2.417 -16.623  0.00  0.00    +0.053 A 
ATOM      3  N   UNL     1     -12.675   3.758 -16.905  0.00  0.00    -0.339 N 
ATOM      4  H   UNL     1     -11.723   4.003 -17.150  0.00  0.00    +0.167 HD
ATOM      5  C   UNL     1     -13.619   4.721 -16.796  0.00  0.00    +0.139 A 
ATOM      6  C   UNL     1     -13.639   6.070 -17.031  0.00  0.00    +0.079 A 
ATOM      7  C   UNL     1     -14.959   6.469 -16.704  0.00  0.00    +0.130 A 
ATOM      8  N   UNL     1     -15.711   5.440 -16.289  0.00  0.00    -0.159 NA
ATOM      9  N   UNL     1     -14.880   4.371 -16.361  0.00  0.00    -0.179 N 
ATOM     10  C   UNL     1     -15.259   3.065 -16.030  0.00  0.00    +0.275 A 
ATOM     11  O   UNL     1     -16.382   2.782 -15.634  0.00  0.00    -0.266 OA
ENDROOT
BRANCH   2  12
ATOM     12  C   UNL     1     -11.844   1.402 -16.803  0.00  0.00    -0.001 A 
ATOM     13  C   UNL     1     -10.565   1.763 -17.276  0.00  0.00    +0.010 A 
ATOM     14  C   UNL     1      -9.541   0.821 -17.439  0.00  0.00    +0.001 A 
ATOM     15  C   UNL     1      -9.768  -0.517 -17.146  0.00  0.00    +0.000 A 
ATOM     16  C   UNL     1     -11.017  -0.909 -16.683  0.00  0.00    +0.001 A 
ATOM     17  C   UNL     1     -12.035   0.038 -16.506  0.00  0.00    +0.010 A 
ENDBRANCH   2  12
BRANCH   7  18
ATOM     18  C   UNL     1     -15.508   7.859 -16.791  0.00  0.00    +0.155 A 
ATOM     19  C   UNL     1     -15.843   8.547 -17.944  0.00  0.00    +0.051 A 
ATOM     20  C   UNL     1     -16.320   9.820 -17.543  0.00  0.00    +0.042 A 
ATOM     21  C   UNL     1     -16.247   9.837 -16.171  0.00  0.00    +0.196 A 
ATOM     22  O   UNL     1     -15.761   8.659 -15.708  0.00  0.00    -0.461 OA
ENDBRANCH   7  18
TORSDOF 2
ENDMDL
MODEL 7
REMARK VINA RESULT:      -7.2      2.923      4.239
REMARK  Name = min_compound970.pdb
REMARK  2 active torsions:
REMARK  status: ('A' for Active; 'I' for Inactive)
REMARK    1  A    between atoms: _2  and  _17
REMARK    2  A    between atoms: _11  and  _12
REMARK                            x       y       z     vdW  Elec       q    Type
REMARK                         _______ _______ _______ _____ _____    ______ ____
ROOT
ATOM      1  C   UNL     1     -13.348   2.536 -17.569  0.00  0.00    +0.098 A 
ATOM      2  C   UNL     1     -12.602   1.618 -18.225  0.00  0.00    +0.053 A 
ATOM      3  N   UNL     1     -12.787   1.433 -19.595  0.00  0.00    -0.339 N 
ATOM      4  H   UNL     1     -12.165   0.787 -20.068  0.00  0.00    +0.167 HD
ATOM      5  C   UNL     1     -13.710   2.128 -20.300  0.00  0.00    +0.139 A 
ATOM      6  C   UNL     1     -14.113   2.125 -21.609  0.00  0.00    +0.079 A 
ATOM      7  C   UNL     1     -15.126   3.114 -21.672  0.00  0.00    +0.130 A 
ATOM      8  N   UNL     1     -15.339   3.697 -20.484  0.00  0.00    -0.159 NA
ATOM      9  N   UNL     1     -14.471   3.074 -19.649  0.00  0.00    -0.179 N 
ATOM     10  C   UNL     1     -14.361   3.362 -18.283  0.00  0.00    +0.275 A 
ATOM     11  O   UNL     1     -15.041   4.217 -17.730  0.00  0.00    -0.266 OA
ENDROOT
BRANCH   2  12
ATOM     12  C   UNL     1     -11.577   0.780 -17.507  0.00  0.00    -0.001 A 
ATOM     13  C   UNL     1     -10.193   1.009 -17.652  0.00  0.00    +0.010 A 
ATOM     14  C   UNL     1      -9.238   0.234 -16.981  0.00  0.00    +0.001 A 
ATOM     15  C   UNL     1      -9.638  -0.807 -16.155  0.00  0.00    +0.000 A 
ATOM     16  C   UNL     1     -10.993  -1.066 -15.994  0.00  0.00    +0.001 A 
ATOM     17  C   UNL     1     -11.947  -0.278 -16.653  0.00  0.00    +0.010 A 
ENDBRANCH   2  12
BRANCH   7  18
ATOM     18  C   UNL     1     -15.902   3.506 -22.890  0.00  0.00    +0.155 A 
ATOM     19  C   UNL     1     -16.213   2.698 -23.969  0.00  0.00    +0.051 A 
ATOM     20  C   UNL     1     -16.957   3.490 -24.879  0.00  0.00    +0.042 A 
ATOM     21  C   UNL     1     -17.056   4.734 -24.306  0.00  0.00    +0.196 A 
ATOM     22  O   UNL     1     -16.426   4.753 -23.105  0.00  0.00    -0.461 OA
ENDBRANCH   7  18
TORSDOF 2
ENDMDL
MODEL 8
REMARK VINA RESULT:      -7.2      2.205      7.882
REMARK  Name = min_compound970.pdb
REMARK  2 active torsions:
REMARK  status: ('A' for Active; 'I' for Inactive)
REMARK    1  A    between atoms: _2  and  _17
REMARK    2  A    between atoms: _11  and  _12
REMARK                            x       y       z     vdW  Elec       q    Type
REMARK                         _______ _______ _______ _____ _____    ______ ____
ROOT
ATOM      1  C   UNL     1     -13.294   6.953 -18.160  0.00  0.00    +0.098 A 
ATOM      2  C   UNL     1     -14.079   6.913 -17.060  0.00  0.00    +0.053 A 
ATOM      3  N   UNL     1     -14.045   5.791 -16.230  0.00  0.00    -0.339 N 
ATOM      4  H   UNL     1     -14.594   5.822 -15.380  0.00  0.00    +0.167 HD
ATOM      5  C   UNL     1     -13.263   4.720 -16.497  0.00  0.00    +0.139 A 
ATOM      6  C   UNL     1     -13.061   3.509 -15.888  0.00  0.00    +0.079 A 
ATOM      7  C   UNL     1     -12.094   2.861 -16.696  0.00  0.00    +0.130 A 
ATOM      8  N   UNL     1     -11.715   3.616 -17.736  0.00  0.00    -0.159 NA
ATOM      9  N   UNL     1     -12.448   4.750 -17.608  0.00  0.00    -0.179 N 
ATOM     10  C   UNL     1     -12.381   5.826 -18.501  0.00  0.00    +0.275 A 
ATOM     11  O   UNL     1     -11.640   5.834 -19.475  0.00  0.00    -0.266 OA
ENDROOT
BRANCH   2  12
ATOM     12  C   UNL     1     -15.004   8.049 -16.711  0.00  0.00    -0.001 A 
ATOM     13  C   UNL     1     -15.307   8.380 -15.374  0.00  0.00    +0.010 A 
ATOM     14  C   UNL     1     -16.162   9.440 -15.047  0.00  0.00    +0.001 A 
ATOM     15  C   UNL     1     -16.754  10.196 -16.050  0.00  0.00    +0.000 A 
ATOM     16  C   UNL     1     -16.483   9.895 -17.378  0.00  0.00    +0.001 A 
ATOM     17  C   UNL     1     -15.614   8.844 -17.702  0.00  0.00    +0.010 A 
ENDBRANCH   2  12
BRANCH   7  18
ATOM     18  C   UNL     1     -11.525   1.495 -16.467  0.00  0.00    +0.155 A 
ATOM     19  C   UNL     1     -10.339   1.190 -15.824  0.00  0.00    +0.051 A 
ATOM     20  C   UNL     1     -10.209  -0.221 -15.842  0.00  0.00    +0.042 A 
ATOM     21  C   UNL     1     -11.321  -0.696 -16.495  0.00  0.00    +0.196 A 
ATOM     22  O   UNL     1     -12.121   0.331 -16.874  0.00  0.00    -0.461 OA
ENDBRANCH   7  18
TORSDOF 2
ENDMDL
MODEL 9
REMARK VINA RESULT:      -7.1     13.188     14.619
REMARK  Name = min_compound970.pdb
REMARK  2 active torsions:
REMARK  status: ('A' for Active; 'I' for Inactive)
REMARK    1  A    between atoms: _2  and  _17
REMARK    2  A    between atoms: _11  and  _12
REMARK                            x       y       z     vdW  Elec       q    Type
REMARK                         _______ _______ _______ _____ _____    ______ ____
ROOT
ATOM      1  C   UNL     1     -14.197  -0.686  -2.763  0.00  0.00    +0.098 A 
ATOM      2  C   UNL     1     -14.741  -1.844  -3.202  0.00  0.00    +0.053 A 
ATOM      3  N   UNL     1     -15.403  -1.871  -4.431  0.00  0.00    -0.339 N 
ATOM      4  H   UNL     1     -15.739  -2.768  -4.761  0.00  0.00    +0.167 HD
ATOM      5  C   UNL     1     -15.542  -0.767  -5.201  0.00  0.00    +0.139 A 
ATOM      6  C   UNL     1     -16.152  -0.509  -6.399  0.00  0.00    +0.079 A 
ATOM      7  C   UNL     1     -15.909   0.867  -6.634  0.00  0.00    +0.130 A 
ATOM      8  N   UNL     1     -15.192   1.430  -5.651  0.00  0.00    -0.159 NA
ATOM      9  N   UNL     1     -14.984   0.419  -4.772  0.00  0.00    -0.179 N 
ATOM     10  C   UNL     1     -14.281   0.563  -3.571  0.00  0.00    +0.275 A 
ATOM     11  O   UNL     1     -13.783   1.624  -3.218  0.00  0.00    -0.266 OA
ENDROOT
BRANCH   2  12
ATOM     12  C   UNL     1     -14.660  -3.110  -2.390  0.00  0.00    -0.001 A 
ATOM     13  C   UNL     1     -15.718  -4.042  -2.355  0.00  0.00    +0.010 A 
ATOM     14  C   UNL     1     -15.642  -5.222  -1.605  0.00  0.00    +0.001 A 
ATOM     15  C   UNL     1     -14.510  -5.502  -0.853  0.00  0.00    +0.000 A 
ATOM     16  C   UNL     1     -13.451  -4.604  -0.859  0.00  0.00    +0.001 A 
ATOM     17  C   UNL     1     -13.523  -3.430  -1.624  0.00  0.00    +0.010 A 
ENDBRANCH   2  12
BRANCH   7  18
ATOM     18  C   UNL     1     -16.370   1.655  -7.821  0.00  0.00    +0.155 A 
ATOM     19  C   UNL     1     -17.648   1.683  -8.350  0.00  0.00    +0.051 A 
ATOM     20  C   UNL     1     -17.617   2.562  -9.461  0.00  0.00    +0.042 A 
ATOM     21  C   UNL     1     -16.325   3.019  -9.547  0.00  0.00    +0.196 A 
ATOM     22  O   UNL     1     -15.566   2.481  -8.561  0.00  0.00    -0.461 OA
ENDBRANCH   7  18
TORSDOF 2
ENDMDL
