MODEL 1
REMARK VINA RESULT:      -7.2      0.000      0.000
REMARK  Name = min_compound981.pdb
REMARK  7 active torsions:
REMARK  status: ('A' for Active; 'I' for Inactive)
REMARK    1  A    between atoms: _3  and  _7
REMARK    2  A    between atoms: _6  and  _19
REMARK    3  A    between atoms: _8  and  _9
REMARK    4  A    between atoms: _8  and  _10
REMARK    5  A    between atoms: _9  and  _13
REMARK    6  A    between atoms: _10  and  _11
REMARK    7  A    between atoms: _19  and  _20
REMARK                            x       y       z     vdW  Elec       q    Type
REMARK                         _______ _______ _______ _____ _____    ______ ____
ROOT
ATOM      1  C   UNL     1     -13.671   3.941 -17.361  0.00  0.00    +0.016 C 
ATOM      2  C   UNL     1     -12.416   3.161 -17.294  0.00  0.00    +0.014 C 
ENDROOT
BRANCH   1   4
ATOM      3  C   UNL     1     -13.889   6.391 -17.267  0.00  0.00    +0.008 A 
ATOM      4  C   UNL     1     -14.200   5.146 -16.690  0.00  0.00    -0.025 A 
ATOM      5  C   UNL     1     -15.012   5.152 -15.552  0.00  0.00    +0.008 A 
ATOM      6  C   UNL     1     -15.478   6.351 -14.993  0.00  0.00    +0.005 A 
ATOM      7  C   UNL     1     -15.152   7.571 -15.578  0.00  0.00    -0.034 A 
ATOM      8  C   UNL     1     -14.359   7.592 -16.720  0.00  0.00    +0.005 A 
BRANCH   7   9
ATOM      9  C   UNL     1     -15.634   8.792 -15.012  0.00  0.00    +0.113 C 
BRANCH   9  10
ATOM     10  N   UNL     1     -16.122  10.035 -14.437  0.00  0.00    -0.326 NA
ATOM     11  H   UNL     1     -17.009   9.866 -13.964  0.00  0.00    +0.119 HD
ATOM     12  H   UNL     1     -15.441  10.389 -13.764  0.00  0.00    +0.119 HD
ENDBRANCH   9  10
ENDBRANCH   7   9
ENDBRANCH   1   4
BRANCH   2  13
ATOM     13  C   UNL     1     -12.286   2.016 -18.044  0.00  0.00    +0.190 C 
ATOM     14  O   UNL     1     -12.843   1.786 -19.170  0.00  0.00    -0.287 OA
BRANCH  13  15
ATOM     15  C   UNL     1     -11.371   0.924 -17.520  0.00  0.00    +0.022 A 
ATOM     16  C   UNL     1      -9.977   0.932 -17.677  0.00  0.00    +0.012 A 
ATOM     17  C   UNL     1      -9.180  -0.064 -17.105  0.00  0.00    +0.001 A 
ATOM     18  C   UNL     1      -9.756  -1.065 -16.317  0.00  0.00    +0.000 A 
ATOM     19  C   UNL     1     -11.129  -1.071 -16.111  0.00  0.00    +0.001 A 
ATOM     20  C   UNL     1     -11.924  -0.092 -16.713  0.00  0.00    +0.012 A 
ENDBRANCH  13  15
ENDBRANCH   2  13
BRANCH   2  21
ATOM     21  C   UNL     1     -11.393   3.669 -16.323  0.00  0.00    +0.117 C 
BRANCH  21  22
ATOM     22  N   UNL     1     -10.369   4.177 -15.351  0.00  0.00    -0.326 NA
ATOM     23  H   UNL     1     -10.827   4.424 -14.473  0.00  0.00    +0.119 HD
ATOM     24  H   UNL     1      -9.673   3.451 -15.180  0.00  0.00    +0.119 HD
ENDBRANCH  21  22
ENDBRANCH   2  21
TORSDOF 7
ENDMDL
MODEL 2
REMARK VINA RESULT:      -7.2      2.541      3.396
REMARK  Name = min_compound981.pdb
REMARK  7 active torsions:
REMARK  status: ('A' for Active; 'I' for Inactive)
REMARK    1  A    between atoms: _3  and  _7
REMARK    2  A    between atoms: _6  and  _19
REMARK    3  A    between atoms: _8  and  _9
REMARK    4  A    between atoms: _8  and  _10
REMARK    5  A    between atoms: _9  and  _13
REMARK    6  A    between atoms: _10  and  _11
REMARK    7  A    between atoms: _19  and  _20
REMARK                            x       y       z     vdW  Elec       q    Type
REMARK                         _______ _______ _______ _____ _____    ______ ____
ROOT
ATOM      1  C   UNL     1     -14.238   2.271 -16.173  0.00  0.00    +0.016 C 
ATOM      2  C   UNL     1     -13.334   2.773 -17.231  0.00  0.00    +0.014 C 
ENDROOT
BRANCH   1   4
ATOM      3  C   UNL     1     -16.275   2.285 -14.792  0.00  0.00    +0.008 A 
ATOM      4  C   UNL     1     -15.037   2.883 -15.092  0.00  0.00    -0.025 A 
ATOM      5  C   UNL     1     -14.653   3.982 -14.319  0.00  0.00    +0.008 A 
ATOM      6  C   UNL     1     -15.478   4.486 -13.301  0.00  0.00    +0.005 A 
ATOM      7  C   UNL     1     -16.701   3.880 -13.027  0.00  0.00    -0.034 A 
ATOM      8  C   UNL     1     -17.100   2.774 -13.771  0.00  0.00    +0.005 A 
BRANCH   7   9
ATOM      9  C   UNL     1     -17.537   4.388 -11.985  0.00  0.00    +0.113 C 
BRANCH   9  10
ATOM     10  N   UNL     1     -18.386   4.904 -10.923  0.00  0.00    -0.326 NA
ATOM     11  H   UNL     1     -18.878   5.734 -11.253  0.00  0.00    +0.119 HD
ATOM     12  H   UNL     1     -19.065   4.192 -10.654  0.00  0.00    +0.119 HD
ENDBRANCH   9  10
ENDBRANCH   7   9
ENDBRANCH   1   4
BRANCH   2  13
ATOM     13  C   UNL     1     -12.687   1.880 -18.052  0.00  0.00    +0.190 C 
ATOM     14  O   UNL     1     -12.854   1.761 -19.313  0.00  0.00    -0.287 OA
BRANCH  13  15
ATOM     15  C   UNL     1     -11.648   0.966 -17.429  0.00  0.00    +0.022 A 
ATOM     16  C   UNL     1     -11.963  -0.199 -16.714  0.00  0.00    +0.012 A 
ATOM     17  C   UNL     1     -10.959  -1.042 -16.228  0.00  0.00    +0.001 A 
ATOM     18  C   UNL     1      -9.615  -0.766 -16.492  0.00  0.00    +0.000 A 
ATOM     19  C   UNL     1      -9.278   0.360 -17.235  0.00  0.00    +0.001 A 
ATOM     20  C   UNL     1     -10.285   1.216 -17.688  0.00  0.00    +0.012 A 
ENDBRANCH  13  15
ENDBRANCH   2  13
BRANCH   2  21
ATOM     21  C   UNL     1     -13.143   4.260 -17.262  0.00  0.00    +0.117 C 
BRANCH  21  22
ATOM     22  N   UNL     1     -12.951   5.748 -17.294  0.00  0.00    -0.326 NA
ATOM     23  H   UNL     1     -11.987   5.961 -17.551  0.00  0.00    +0.119 HD
ATOM     24  H   UNL     1     -13.585   6.158 -17.980  0.00  0.00    +0.119 HD
ENDBRANCH  21  22
ENDBRANCH   2  21
TORSDOF 7
ENDMDL
MODEL 3
REMARK VINA RESULT:      -7.0      3.128      3.926
REMARK  Name = min_compound981.pdb
REMARK  7 active torsions:
REMARK  status: ('A' for Active; 'I' for Inactive)
REMARK    1  A    between atoms: _3  and  _7
REMARK    2  A    between atoms: _6  and  _19
REMARK    3  A    between atoms: _8  and  _9
REMARK    4  A    between atoms: _8  and  _10
REMARK    5  A    between atoms: _9  and  _13
REMARK    6  A    between atoms: _10  and  _11
REMARK    7  A    between atoms: _19  and  _20
REMARK                            x       y       z     vdW  Elec       q    Type
REMARK                         _______ _______ _______ _____ _____    ______ ____
ROOT
ATOM      1  C   UNL     1     -13.667   3.251 -15.358  0.00  0.00    +0.016 C 
ATOM      2  C   UNL     1     -13.317   3.170 -16.793  0.00  0.00    +0.014 C 
ENDROOT
BRANCH   1   4
ATOM      3  C   UNL     1     -15.946   2.508 -14.803  0.00  0.00    +0.008 A 
ATOM      4  C   UNL     1     -14.911   3.436 -14.586  0.00  0.00    -0.025 A 
ATOM      5  C   UNL     1     -15.136   4.433 -13.632  0.00  0.00    +0.008 A 
ATOM      6  C   UNL     1     -16.351   4.521 -12.937  0.00  0.00    +0.005 A 
ATOM      7  C   UNL     1     -17.362   3.594 -13.174  0.00  0.00    -0.034 A 
ATOM      8  C   UNL     1     -17.159   2.581 -14.107  0.00  0.00    +0.005 A 
BRANCH   7   9
ATOM      9  C   UNL     1     -18.598   3.678 -12.460  0.00  0.00    +0.113 C 
BRANCH   9  10
ATOM     10  N   UNL     1     -19.855   3.763 -11.735  0.00  0.00    -0.326 NA
ATOM     11  H   UNL     1     -20.620   3.472 -12.345  0.00  0.00    +0.119 HD
ATOM     12  H   UNL     1     -19.820   3.150 -10.920  0.00  0.00    +0.119 HD
ENDBRANCH   9  10
ENDBRANCH   7   9
ENDBRANCH   1   4
BRANCH   2  13
ATOM     13  C   UNL     1     -11.999   3.052 -17.167  0.00  0.00    +0.190 C 
ATOM     14  O   UNL     1     -11.256   3.990 -17.613  0.00  0.00    -0.287 OA
BRANCH  13  15
ATOM     15  C   UNL     1     -11.336   1.695 -17.011  0.00  0.00    +0.022 A 
ATOM     16  C   UNL     1     -12.022   0.531 -16.633  0.00  0.00    +0.012 A 
ATOM     17  C   UNL     1     -11.371  -0.706 -16.580  0.00  0.00    +0.001 A 
ATOM     18  C   UNL     1     -10.028  -0.814 -16.955  0.00  0.00    +0.000 A 
ATOM     19  C   UNL     1      -9.338   0.317 -17.372  0.00  0.00    +0.001 A 
ATOM     20  C   UNL     1      -9.985   1.555 -17.391  0.00  0.00    +0.012 A 
ENDBRANCH  13  15
ENDBRANCH   2  13
BRANCH   2  21
ATOM     21  C   UNL     1     -14.469   3.304 -17.745  0.00  0.00    +0.117 C 
BRANCH  21  22
ATOM     22  N   UNL     1     -15.620   3.438 -18.697  0.00  0.00    -0.326 NA
ATOM     23  H   UNL     1     -16.147   2.564 -18.718  0.00  0.00    +0.119 HD
ATOM     24  H   UNL     1     -16.230   4.195 -18.389  0.00  0.00    +0.119 HD
ENDBRANCH  21  22
ENDBRANCH   2  21
TORSDOF 7
ENDMDL
MODEL 4
REMARK VINA RESULT:      -6.7      1.666      1.839
REMARK  Name = min_compound981.pdb
REMARK  7 active torsions:
REMARK  status: ('A' for Active; 'I' for Inactive)
REMARK    1  A    between atoms: _3  and  _7
REMARK    2  A    between atoms: _6  and  _19
REMARK    3  A    between atoms: _8  and  _9
REMARK    4  A    between atoms: _8  and  _10
REMARK    5  A    between atoms: _9  and  _13
REMARK    6  A    between atoms: _10  and  _11
REMARK    7  A    between atoms: _19  and  _20
REMARK                            x       y       z     vdW  Elec       q    Type
REMARK                         _______ _______ _______ _____ _____    ______ ____
ROOT
ATOM      1  C   UNL     1     -13.479   4.304 -17.129  0.00  0.00    +0.016 C 
ATOM      2  C   UNL     1     -13.663   2.836 -17.097  0.00  0.00    +0.014 C 
ENDROOT
BRANCH   1   4
ATOM      3  C   UNL     1     -13.953   6.718 -17.117  0.00  0.00    +0.008 A 
ATOM      4  C   UNL     1     -14.153   5.464 -16.512  0.00  0.00    -0.025 A 
ATOM      5  C   UNL     1     -14.999   5.417 -15.401  0.00  0.00    +0.008 A 
ATOM      6  C   UNL     1     -15.606   6.575 -14.893  0.00  0.00    +0.005 A 
ATOM      7  C   UNL     1     -15.388   7.806 -15.506  0.00  0.00    -0.034 A 
ATOM      8  C   UNL     1     -14.563   7.879 -16.624  0.00  0.00    +0.005 A 
BRANCH   7   9
ATOM      9  C   UNL     1     -16.013   8.985 -14.994  0.00  0.00    +0.113 C 
BRANCH   9  10
ATOM     10  N   UNL     1     -16.649  10.184 -14.470  0.00  0.00    -0.326 NA
ATOM     11  H   UNL     1     -17.469   9.922 -13.922  0.00  0.00    +0.119 HD
ATOM     12  H   UNL     1     -15.990  10.686 -13.875  0.00  0.00    +0.119 HD
ENDBRANCH   9  10
ENDBRANCH   7   9
ENDBRANCH   1   4
BRANCH   2  13
ATOM     13  C   UNL     1     -12.861   2.033 -17.873  0.00  0.00    +0.190 C 
ATOM     14  O   UNL     1     -12.959   1.865 -19.135  0.00  0.00    -0.287 OA
BRANCH  13  15
ATOM     15  C   UNL     1     -11.725   1.294 -17.190  0.00  0.00    +0.022 A 
ATOM     16  C   UNL     1     -11.179   1.672 -15.954  0.00  0.00    +0.012 A 
ATOM     17  C   UNL     1     -10.184   0.906 -15.339  0.00  0.00    +0.001 A 
ATOM     18  C   UNL     1      -9.748  -0.287 -15.923  0.00  0.00    +0.000 A 
ATOM     19  C   UNL     1     -10.303  -0.706 -17.126  0.00  0.00    +0.001 A 
ATOM     20  C   UNL     1     -11.272   0.081 -17.752  0.00  0.00    +0.012 A 
ENDBRANCH  13  15
ENDBRANCH   2  13
BRANCH   2  21
ATOM     21  C   UNL     1     -14.797   2.348 -16.246  0.00  0.00    +0.117 C 
BRANCH  21  22
ATOM     22  N   UNL     1     -15.932   1.860 -15.395  0.00  0.00    -0.326 NA
ATOM     23  H   UNL     1     -15.584   1.170 -14.728  0.00  0.00    +0.119 HD
ATOM     24  H   UNL     1     -16.341   2.646 -14.889  0.00  0.00    +0.119 HD
ENDBRANCH  21  22
ENDBRANCH   2  21
TORSDOF 7
ENDMDL
MODEL 5
REMARK VINA RESULT:      -6.6      8.305     10.598
REMARK  Name = min_compound981.pdb
REMARK  7 active torsions:
REMARK  status: ('A' for Active; 'I' for Inactive)
REMARK    1  A    between atoms: _3  and  _7
REMARK    2  A    between atoms: _6  and  _19
REMARK    3  A    between atoms: _8  and  _9
REMARK    4  A    between atoms: _8  and  _10
REMARK    5  A    between atoms: _9  and  _13
REMARK    6  A    between atoms: _10  and  _11
REMARK    7  A    between atoms: _19  and  _20
REMARK                            x       y       z     vdW  Elec       q    Type
REMARK                         _______ _______ _______ _____ _____    ______ ____
ROOT
ATOM      1  C   UNL     1     -15.922   2.628  -8.933  0.00  0.00    +0.016 C 
ATOM      2  C   UNL     1     -16.703   3.885  -8.933  0.00  0.00    +0.014 C 
ENDROOT
BRANCH   1   4
ATOM      3  C   UNL     1     -14.458   1.513  -7.300  0.00  0.00    +0.008 A 
ATOM      4  C   UNL     1     -15.693   1.530  -7.973  0.00  0.00    -0.025 A 
ATOM      5  C   UNL     1     -16.612   0.528  -7.649  0.00  0.00    +0.008 A 
ATOM      6  C   UNL     1     -16.307  -0.470  -6.711  0.00  0.00    +0.005 A 
ATOM      7  C   UNL     1     -15.075  -0.469  -6.063  0.00  0.00    -0.034 A 
ATOM      8  C   UNL     1     -14.148   0.527  -6.354  0.00  0.00    +0.005 A 
BRANCH   7   9
ATOM      9  C   UNL     1     -14.768  -1.481  -5.101  0.00  0.00    +0.113 C 
BRANCH   9  10
ATOM     10  N   UNL     1     -14.456  -2.508  -4.120  0.00  0.00    -0.326 NA
ATOM     11  H   UNL     1     -14.901  -3.384  -4.392  0.00  0.00    +0.119 HD
ATOM     12  H   UNL     1     -13.446  -2.640  -4.076  0.00  0.00    +0.119 HD
ENDBRANCH   9  10
ENDBRANCH   7   9
ENDBRANCH   1   4
BRANCH   2  13
ATOM     13  C   UNL     1     -16.632   4.730 -10.015  0.00  0.00    +0.190 C 
ATOM     14  O   UNL     1     -16.691   6.006  -9.979  0.00  0.00    -0.287 OA
BRANCH  13  15
ATOM     15  C   UNL     1     -16.428   4.112 -11.386  0.00  0.00    +0.022 A 
ATOM     16  C   UNL     1     -17.333   3.219 -11.981  0.00  0.00    +0.012 A 
ATOM     17  C   UNL     1     -17.128   2.743 -13.280  0.00  0.00    +0.001 A 
ATOM     18  C   UNL     1     -16.039   3.189 -14.034  0.00  0.00    +0.000 A 
ATOM     19  C   UNL     1     -15.152   4.106 -13.483  0.00  0.00    +0.001 A 
ATOM     20  C   UNL     1     -15.344   4.553 -12.173  0.00  0.00    +0.012 A 
ENDBRANCH  13  15
ENDBRANCH   2  13
BRANCH   2  21
ATOM     21  C   UNL     1     -17.471   4.166  -7.676  0.00  0.00    +0.117 C 
BRANCH  21  22
ATOM     22  N   UNL     1     -18.239   4.447  -6.418  0.00  0.00    -0.326 NA
ATOM     23  H   UNL     1     -17.789   3.977  -5.632  0.00  0.00    +0.119 HD
ATOM     24  H   UNL     1     -18.257   5.453  -6.248  0.00  0.00    +0.119 HD
ENDBRANCH  21  22
ENDBRANCH   2  21
TORSDOF 7
ENDMDL
MODEL 6
REMARK VINA RESULT:      -6.6      2.574      3.084
REMARK  Name = min_compound981.pdb
REMARK  7 active torsions:
REMARK  status: ('A' for Active; 'I' for Inactive)
REMARK    1  A    between atoms: _3  and  _7
REMARK    2  A    between atoms: _6  and  _19
REMARK    3  A    between atoms: _8  and  _9
REMARK    4  A    between atoms: _8  and  _10
REMARK    5  A    between atoms: _9  and  _13
REMARK    6  A    between atoms: _10  and  _11
REMARK    7  A    between atoms: _19  and  _20
REMARK                            x       y       z     vdW  Elec       q    Type
REMARK                         _______ _______ _______ _____ _____    ______ ____
ROOT
ATOM      1  C   UNL     1     -12.269   5.100 -17.349  0.00  0.00    +0.016 C 
ATOM      2  C   UNL     1     -12.190   4.077 -16.284  0.00  0.00    +0.014 C 
ENDROOT
BRANCH   1   4
ATOM      3  C   UNL     1     -13.707   7.097 -17.301  0.00  0.00    +0.008 A 
ATOM      4  C   UNL     1     -13.347   5.906 -17.958  0.00  0.00    -0.025 A 
ATOM      5  C   UNL     1     -14.014   5.605 -19.149  0.00  0.00    +0.008 A 
ATOM      6  C   UNL     1     -15.019   6.442 -19.657  0.00  0.00    +0.005 A 
ATOM      7  C   UNL     1     -15.362   7.612 -18.985  0.00  0.00    -0.034 A 
ATOM      8  C   UNL     1     -14.702   7.944 -17.807  0.00  0.00    +0.005 A 
BRANCH   7   9
ATOM      9  C   UNL     1     -16.380   8.469 -19.507  0.00  0.00    +0.113 C 
BRANCH   9  10
ATOM     10  N   UNL     1     -17.417   9.340 -20.036  0.00  0.00    -0.326 NA
ATOM     11  H   UNL     1     -17.398  10.231 -19.540  0.00  0.00    +0.119 HD
ATOM     12  H   UNL     1     -17.251   9.502 -21.029  0.00  0.00    +0.119 HD
ENDBRANCH   9  10
ENDBRANCH   7   9
ENDBRANCH   1   4
BRANCH   2  13
ATOM     13  C   UNL     1     -10.987   3.469 -16.013  0.00  0.00    +0.190 C 
ATOM     14  O   UNL     1      -9.962   4.027 -15.493  0.00  0.00    -0.287 OA
BRANCH  13  15
ATOM     15  C   UNL     1     -10.854   1.989 -16.320  0.00  0.00    +0.022 A 
ATOM     16  C   UNL     1     -11.229   1.409 -17.541  0.00  0.00    +0.012 A 
ATOM     17  C   UNL     1     -11.011   0.050 -17.792  0.00  0.00    +0.001 A 
ATOM     18  C   UNL     1     -10.365  -0.749 -16.845  0.00  0.00    +0.000 A 
ATOM     19  C   UNL     1      -9.947  -0.189 -15.645  0.00  0.00    +0.001 A 
ATOM     20  C   UNL     1     -10.197   1.161 -15.386  0.00  0.00    +0.012 A 
ENDBRANCH  13  15
ENDBRANCH   2  13
BRANCH   2  21
ATOM     21  C   UNL     1     -13.492   3.731 -15.625  0.00  0.00    +0.117 C 
BRANCH  21  22
ATOM     22  N   UNL     1     -14.794   3.385 -14.965  0.00  0.00    -0.326 NA
ATOM     23  H   UNL     1     -14.631   3.173 -13.981  0.00  0.00    +0.119 HD
ATOM     24  H   UNL     1     -15.434   4.176 -15.041  0.00  0.00    +0.119 HD
ENDBRANCH  21  22
ENDBRANCH   2  21
TORSDOF 7
ENDMDL
MODEL 7
REMARK VINA RESULT:      -6.6      7.823      9.810
REMARK  Name = min_compound981.pdb
REMARK  7 active torsions:
REMARK  status: ('A' for Active; 'I' for Inactive)
REMARK    1  A    between atoms: _3  and  _7
REMARK    2  A    between atoms: _6  and  _19
REMARK    3  A    between atoms: _8  and  _9
REMARK    4  A    between atoms: _8  and  _10
REMARK    5  A    between atoms: _9  and  _13
REMARK    6  A    between atoms: _10  and  _11
REMARK    7  A    between atoms: _19  and  _20
REMARK                            x       y       z     vdW  Elec       q    Type
REMARK                         _______ _______ _______ _____ _____    ______ ____
ROOT
ATOM      1  C   UNL     1     -16.930   2.311  -9.215  0.00  0.00    +0.016 C 
ATOM      2  C   UNL     1     -17.258   3.550  -9.953  0.00  0.00    +0.014 C 
ENDROOT
BRANCH   1   4
ATOM      3  C   UNL     1     -14.992   1.445  -7.970  0.00  0.00    +0.008 A 
ATOM      4  C   UNL     1     -16.287   1.993  -7.923  0.00  0.00    -0.025 A 
ATOM      5  C   UNL     1     -16.842   2.221  -6.661  0.00  0.00    +0.008 A 
ATOM      6  C   UNL     1     -16.146   1.896  -5.487  0.00  0.00    +0.005 A 
ATOM      7  C   UNL     1     -14.868   1.350  -5.558  0.00  0.00    -0.034 A 
ATOM      8  C   UNL     1     -14.286   1.127  -6.802  0.00  0.00    +0.005 A 
BRANCH   7   9
ATOM      9  C   UNL     1     -14.156   1.026  -4.361  0.00  0.00    +0.113 C 
BRANCH   9  10
ATOM     10  N   UNL     1     -13.432   0.695  -3.145  0.00  0.00    -0.326 NA
ATOM     11  H   UNL     1     -12.863  -0.137  -3.303  0.00  0.00    +0.119 HD
ATOM     12  H   UNL     1     -12.828   1.474  -2.885  0.00  0.00    +0.119 HD
ENDBRANCH   9  10
ENDBRANCH   7   9
ENDBRANCH   1   4
BRANCH   2  13
ATOM     13  C   UNL     1     -17.820   3.467 -11.205  0.00  0.00    +0.190 C 
ATOM     14  O   UNL     1     -19.066   3.371 -11.466  0.00  0.00    -0.287 OA
BRANCH  13  15
ATOM     15  C   UNL     1     -16.892   3.530 -12.405  0.00  0.00    +0.022 A 
ATOM     16  C   UNL     1     -15.730   4.315 -12.453  0.00  0.00    +0.012 A 
ATOM     17  C   UNL     1     -14.875   4.272 -13.559  0.00  0.00    +0.001 A 
ATOM     18  C   UNL     1     -15.136   3.402 -14.621  0.00  0.00    +0.000 A 
ATOM     19  C   UNL     1     -16.257   2.583 -14.579  0.00  0.00    +0.001 A 
ATOM     20  C   UNL     1     -17.126   2.655 -13.487  0.00  0.00    +0.012 A 
ENDBRANCH  13  15
ENDBRANCH   2  13
BRANCH   2  21
ATOM     21  C   UNL     1     -16.864   4.828  -9.274  0.00  0.00    +0.117 C 
BRANCH  21  22
ATOM     22  N   UNL     1     -16.471   6.106  -8.594  0.00  0.00    -0.326 NA
ATOM     23  H   UNL     1     -15.486   6.301  -8.780  0.00  0.00    +0.119 HD
ATOM     24  H   UNL     1     -17.042   6.872  -8.953  0.00  0.00    +0.119 HD
ENDBRANCH  21  22
ENDBRANCH   2  21
TORSDOF 7
ENDMDL
MODEL 8
REMARK VINA RESULT:      -6.5      8.726     10.080
REMARK  Name = min_compound981.pdb
REMARK  7 active torsions:
REMARK  status: ('A' for Active; 'I' for Inactive)
REMARK    1  A    between atoms: _3  and  _7
REMARK    2  A    between atoms: _6  and  _19
REMARK    3  A    between atoms: _8  and  _9
REMARK    4  A    between atoms: _8  and  _10
REMARK    5  A    between atoms: _9  and  _13
REMARK    6  A    between atoms: _10  and  _11
REMARK    7  A    between atoms: _19  and  _20
REMARK                            x       y       z     vdW  Elec       q    Type
REMARK                         _______ _______ _______ _____ _____    ______ ____
ROOT
ATOM      1  C   UNL     1     -16.029   2.522  -8.790  0.00  0.00    +0.016 C 
ATOM      2  C   UNL     1     -16.765   1.497  -8.019  0.00  0.00    +0.014 C 
ENDROOT
BRANCH   1   4
ATOM      3  C   UNL     1     -16.510   4.892  -9.247  0.00  0.00    +0.008 A 
ATOM      4  C   UNL     1     -16.394   3.583  -9.750  0.00  0.00    -0.025 A 
ATOM      5  C   UNL     1     -16.598   3.404 -11.121  0.00  0.00    +0.008 A 
ATOM      6  C   UNL     1     -16.931   4.480 -11.958  0.00  0.00    +0.005 A 
ATOM      7  C   UNL     1     -17.046   5.765 -11.435  0.00  0.00    -0.034 A 
ATOM      8  C   UNL     1     -16.831   5.974 -10.077  0.00  0.00    +0.005 A 
BRANCH   7   9
ATOM      9  C   UNL     1     -17.376   6.862 -12.290  0.00  0.00    +0.113 C 
BRANCH   9  10
ATOM     10  N   UNL     1     -17.715   7.978 -13.158  0.00  0.00    -0.326 NA
ATOM     11  H   UNL     1     -18.727   8.020 -13.280  0.00  0.00    +0.119 HD
ATOM     12  H   UNL     1     -17.388   8.848 -12.738  0.00  0.00    +0.119 HD
ENDBRANCH   9  10
ENDBRANCH   7   9
ENDBRANCH   1   4
BRANCH   2  13
ATOM     13  C   UNL     1     -16.071   0.601  -7.242  0.00  0.00    +0.190 C 
ATOM     14  O   UNL     1     -15.905  -0.641  -7.489  0.00  0.00    -0.287 OA
BRANCH  13  15
ATOM     15  C   UNL     1     -15.400   1.123  -5.983  0.00  0.00    +0.022 A 
ATOM     16  C   UNL     1     -15.954   2.116  -5.159  0.00  0.00    +0.012 A 
ATOM     17  C   UNL     1     -15.324   2.501  -3.972  0.00  0.00    +0.001 A 
ATOM     18  C   UNL     1     -14.151   1.865  -3.554  0.00  0.00    +0.000 A 
ATOM     19  C   UNL     1     -13.606   0.851  -4.331  0.00  0.00    +0.001 A 
ATOM     20  C   UNL     1     -14.222   0.493  -5.533  0.00  0.00    +0.012 A 
ENDBRANCH  13  15
ENDBRANCH   2  13
BRANCH   2  21
ATOM     21  C   UNL     1     -18.251   1.483  -8.223  0.00  0.00    +0.117 C 
BRANCH  21  22
ATOM     22  N   UNL     1     -19.737   1.468  -8.426  0.00  0.00    -0.326 NA
ATOM     23  H   UNL     1     -20.168   0.845  -7.743  0.00  0.00    +0.119 HD
ATOM     24  H   UNL     1     -20.106   2.412  -8.306  0.00  0.00    +0.119 HD
ENDBRANCH  21  22
ENDBRANCH   2  21
TORSDOF 7
ENDMDL
MODEL 9
REMARK VINA RESULT:      -6.3      3.545      4.831
REMARK  Name = min_compound981.pdb
REMARK  7 active torsions:
REMARK  status: ('A' for Active; 'I' for Inactive)
REMARK    1  A    between atoms: _3  and  _7
REMARK    2  A    between atoms: _6  and  _19
REMARK    3  A    between atoms: _8  and  _9
REMARK    4  A    between atoms: _8  and  _10
REMARK    5  A    between atoms: _9  and  _13
REMARK    6  A    between atoms: _10  and  _11
REMARK    7  A    between atoms: _19  and  _20
REMARK                            x       y       z     vdW  Elec       q    Type
REMARK                         _______ _______ _______ _____ _____    ______ ____
ROOT
ATOM      1  C   UNL     1     -14.859   4.472 -14.604  0.00  0.00    +0.016 C 
ATOM      2  C   UNL     1     -15.334   3.666 -15.750  0.00  0.00    +0.014 C 
ENDROOT
BRANCH   1   4
ATOM      3  C   UNL     1     -14.944   4.343 -12.148  0.00  0.00    +0.008 A 
ATOM      4  C   UNL     1     -15.440   4.931 -13.326  0.00  0.00    -0.025 A 
ATOM      5  C   UNL     1     -16.412   5.925 -13.185  0.00  0.00    +0.008 A 
ATOM      6  C   UNL     1     -16.894   6.304 -11.923  0.00  0.00    +0.005 A 
ATOM      7  C   UNL     1     -16.392   5.703 -10.772  0.00  0.00    -0.034 A 
ATOM      8  C   UNL     1     -15.411   4.722 -10.883  0.00  0.00    +0.005 A 
BRANCH   7   9
ATOM      9  C   UNL     1     -16.877   6.095  -9.486  0.00  0.00    +0.113 C 
BRANCH   9  10
ATOM     10  N   UNL     1     -17.372   6.495  -8.179  0.00  0.00    -0.326 NA
ATOM     11  H   UNL     1     -17.708   5.673  -7.676  0.00  0.00    +0.119 HD
ATOM     12  H   UNL     1     -16.619   6.932  -7.648  0.00  0.00    +0.119 HD
ENDBRANCH   9  10
ENDBRANCH   7   9
ENDBRANCH   1   4
BRANCH   2  13
ATOM     13  C   UNL     1     -14.516   3.483 -16.839  0.00  0.00    +0.190 C 
ATOM     14  O   UNL     1     -14.894   3.203 -18.027  0.00  0.00    -0.287 OA
BRANCH  13  15
ATOM     15  C   UNL     1     -13.021   3.660 -16.641  0.00  0.00    +0.022 A 
ATOM     16  C   UNL     1     -12.309   4.797 -17.051  0.00  0.00    +0.012 A 
ATOM     17  C   UNL     1     -10.946   4.935 -16.772  0.00  0.00    +0.001 A 
ATOM     18  C   UNL     1     -10.274   3.959 -16.031  0.00  0.00    +0.000 A 
ATOM     19  C   UNL     1     -10.966   2.843 -15.577  0.00  0.00    +0.001 A 
ATOM     20  C   UNL     1     -12.320   2.696 -15.887  0.00  0.00    +0.012 A 
ENDBRANCH  13  15
ENDBRANCH   2  13
BRANCH   2  21
ATOM     21  C   UNL     1     -16.744   3.165 -15.644  0.00  0.00    +0.117 C 
BRANCH  21  22
ATOM     22  N   UNL     1     -18.154   2.664 -15.539  0.00  0.00    -0.326 NA
ATOM     23  H   UNL     1     -18.735   3.136 -16.232  0.00  0.00    +0.119 HD
ATOM     24  H   UNL     1     -18.172   1.658 -15.707  0.00  0.00    +0.119 HD
ENDBRANCH  21  22
ENDBRANCH   2  21
TORSDOF 7
ENDMDL
