MODEL 1
REMARK VINA RESULT:      -8.1      0.000      0.000
REMARK  Name = min_compound952.pdb
REMARK  4 active torsions:
REMARK  status: ('A' for Active; 'I' for Inactive)
REMARK    1  A    between atoms: _12  and  _19
REMARK    2  A    between atoms: _17  and  _18
REMARK    3  A    between atoms: _18  and  _20
REMARK    4  A    between atoms: _20  and  _21
REMARK                            x       y       z     vdW  Elec       q    Type
REMARK                         _______ _______ _______ _____ _____    ______ ____
ROOT
ATOM      1  C   UNL     1      -9.968  -0.948 -17.289  0.00  0.00    +0.001 A 
ATOM      2  C   UNL     1      -9.515  -0.625 -16.012  0.00  0.00    +0.000 A 
ATOM      3  C   UNL     1      -9.994   0.520 -15.376  0.00  0.00    +0.004 A 
ATOM      4  C   UNL     1     -10.939   1.346 -16.008  0.00  0.00    -0.036 A 
ATOM      5  C   UNL     1     -11.419   2.605 -15.331  0.00  0.00    +0.040 C 
ATOM      6  C   UNL     1     -12.805   3.046 -15.808  0.00  0.00    +0.043 C 
ATOM      7  C   UNL     1     -12.869   3.158 -17.315  0.00  0.00    +0.001 C 
ATOM      8  C   UNL     1     -13.279   4.257 -17.987  0.00  0.00    +0.015 C 
ATOM      9  C   UNL     1     -12.378   1.928 -17.987  0.00  0.00    +0.189 C 
ATOM     10  O   UNL     1     -12.918   1.698 -19.106  0.00  0.00    -0.287 OA
ATOM     11  C   UNL     1     -11.394   1.033 -17.302  0.00  0.00    +0.025 A 
ATOM     12  C   UNL     1     -10.898  -0.125 -17.926  0.00  0.00    +0.012 A 
ENDROOT
BRANCH   8  13
ATOM     13  C   UNL     1     -13.810   5.527 -17.477  0.00  0.00    -0.024 A 
ATOM     14  C   UNL     1     -14.841   5.577 -16.529  0.00  0.00    +0.011 A 
ATOM     15  C   UNL     1     -15.427   6.800 -16.176  0.00  0.00    +0.046 A 
ATOM     16  C   UNL     1     -14.994   7.973 -16.791  0.00  0.00    +0.121 A 
ATOM     17  C   UNL     1     -13.938   7.943 -17.699  0.00  0.00    +0.046 A 
ATOM     18  C   UNL     1     -13.362   6.721 -18.054  0.00  0.00    +0.011 A 
BRANCH  16  19
ATOM     19  O   UNL     1     -15.576   9.187 -16.535  0.00  0.00    -0.492 OA
BRANCH  19  20
ATOM     20  C   UNL     1     -15.972   9.357 -15.154  0.00  0.00    +0.225 C 
ATOM     21  C   UNL     1     -16.291  10.789 -14.841  0.00  0.00    +0.048 C 
ENDBRANCH  19  20
ENDBRANCH  16  19
ENDBRANCH   8  13
TORSDOF 3
ENDMDL
MODEL 2
REMARK VINA RESULT:      -7.6      1.740      8.189
REMARK  Name = min_compound952.pdb
REMARK  4 active torsions:
REMARK  status: ('A' for Active; 'I' for Inactive)
REMARK    1  A    between atoms: _12  and  _19
REMARK    2  A    between atoms: _17  and  _18
REMARK    3  A    between atoms: _18  and  _20
REMARK    4  A    between atoms: _20  and  _21
REMARK                            x       y       z     vdW  Elec       q    Type
REMARK                         _______ _______ _______ _____ _____    ______ ____
ROOT
ATOM      1  C   UNL     1     -17.043   8.953 -14.522  0.00  0.00    +0.001 A 
ATOM      2  C   UNL     1     -16.387   9.668 -15.520  0.00  0.00    +0.000 A 
ATOM      3  C   UNL     1     -15.443   9.030 -16.325  0.00  0.00    +0.004 A 
ATOM      4  C   UNL     1     -15.156   7.666 -16.146  0.00  0.00    -0.036 A 
ATOM      5  C   UNL     1     -14.105   6.995 -16.992  0.00  0.00    +0.040 C 
ATOM      6  C   UNL     1     -14.318   5.484 -17.120  0.00  0.00    +0.043 C 
ATOM      7  C   UNL     1     -14.461   4.822 -15.768  0.00  0.00    +0.001 C 
ATOM      8  C   UNL     1     -13.721   3.772 -15.345  0.00  0.00    +0.015 C 
ATOM      9  C   UNL     1     -15.481   5.493 -14.922  0.00  0.00    +0.189 C 
ATOM     10  O   UNL     1     -16.064   4.724 -14.107  0.00  0.00    -0.287 OA
ATOM     11  C   UNL     1     -15.808   6.938 -15.133  0.00  0.00    +0.025 A 
ATOM     12  C   UNL     1     -16.753   7.600 -14.332  0.00  0.00    +0.012 A 
ENDROOT
BRANCH   8  13
ATOM     13  C   UNL     1     -12.704   2.991 -16.059  0.00  0.00    -0.024 A 
ATOM     14  C   UNL     1     -13.031   1.868 -16.831  0.00  0.00    +0.011 A 
ATOM     15  C   UNL     1     -12.026   1.059 -17.375  0.00  0.00    +0.046 A 
ATOM     16  C   UNL     1     -10.688   1.362 -17.126  0.00  0.00    +0.121 A 
ATOM     17  C   UNL     1     -10.349   2.501 -16.401  0.00  0.00    +0.046 A 
ATOM     18  C   UNL     1     -11.355   3.302 -15.854  0.00  0.00    +0.011 A 
BRANCH  16  19
ATOM     19  O   UNL     1      -9.665   0.568 -17.576  0.00  0.00    -0.492 OA
BRANCH  19  20
ATOM     20  C   UNL     1      -9.843  -0.833 -17.265  0.00  0.00    +0.225 C 
ATOM     21  C   UNL     1      -9.666  -1.103 -15.800  0.00  0.00    +0.048 C 
ENDBRANCH  19  20
ENDBRANCH  16  19
ENDBRANCH   8  13
TORSDOF 3
ENDMDL
MODEL 3
REMARK VINA RESULT:      -7.4      1.398      1.955
REMARK  Name = min_compound952.pdb
REMARK  4 active torsions:
REMARK  status: ('A' for Active; 'I' for Inactive)
REMARK    1  A    between atoms: _12  and  _19
REMARK    2  A    between atoms: _17  and  _18
REMARK    3  A    between atoms: _18  and  _20
REMARK    4  A    between atoms: _20  and  _21
REMARK                            x       y       z     vdW  Elec       q    Type
REMARK                         _______ _______ _______ _____ _____    ______ ____
ROOT
ATOM      1  C   UNL     1      -9.921  -0.481 -16.397  0.00  0.00    +0.001 A 
ATOM      2  C   UNL     1     -11.148  -1.119 -16.238  0.00  0.00    +0.000 A 
ATOM      3  C   UNL     1     -12.330  -0.389 -16.360  0.00  0.00    +0.004 A 
ATOM      4  C   UNL     1     -12.294   0.985 -16.655  0.00  0.00    -0.036 A 
ATOM      5  C   UNL     1     -13.575   1.774 -16.743  0.00  0.00    +0.040 C 
ATOM      6  C   UNL     1     -13.446   3.022 -17.622  0.00  0.00    +0.043 C 
ATOM      7  C   UNL     1     -12.279   3.886 -17.201  0.00  0.00    +0.001 C 
ATOM      8  C   UNL     1     -12.365   5.203 -16.908  0.00  0.00    +0.015 C 
ATOM      9  C   UNL     1     -11.019   3.108 -17.092  0.00  0.00    +0.189 C 
ATOM     10  O   UNL     1      -9.975   3.777 -17.334  0.00  0.00    -0.287 OA
ATOM     11  C   UNL     1     -11.058   1.639 -16.807  0.00  0.00    +0.025 A 
ATOM     12  C   UNL     1      -9.879   0.886 -16.678  0.00  0.00    +0.012 A 
ENDROOT
BRANCH   8  13
ATOM     13  C   UNL     1     -13.517   6.110 -16.989  0.00  0.00    -0.024 A 
ATOM     14  C   UNL     1     -13.502   7.264 -17.783  0.00  0.00    +0.011 A 
ATOM     15  C   UNL     1     -14.556   8.185 -17.722  0.00  0.00    +0.046 A 
ATOM     16  C   UNL     1     -15.616   7.962 -16.845  0.00  0.00    +0.121 A 
ATOM     17  C   UNL     1     -15.665   6.796 -16.084  0.00  0.00    +0.046 A 
ATOM     18  C   UNL     1     -14.609   5.883 -16.143  0.00  0.00    +0.011 A 
BRANCH  16  19
ATOM     19  O   UNL     1     -16.639   8.861 -16.694  0.00  0.00    -0.492 OA
BRANCH  19  20
ATOM     20  C   UNL     1     -16.850   9.269 -15.322  0.00  0.00    +0.225 C 
ATOM     21  C   UNL     1     -16.488  10.709 -15.110  0.00  0.00    +0.048 C 
ENDBRANCH  19  20
ENDBRANCH  16  19
ENDBRANCH   8  13
TORSDOF 3
ENDMDL
MODEL 4
REMARK VINA RESULT:      -7.1      4.075      8.567
REMARK  Name = min_compound952.pdb
REMARK  4 active torsions:
REMARK  status: ('A' for Active; 'I' for Inactive)
REMARK    1  A    between atoms: _12  and  _19
REMARK    2  A    between atoms: _17  and  _18
REMARK    3  A    between atoms: _18  and  _20
REMARK    4  A    between atoms: _20  and  _21
REMARK                            x       y       z     vdW  Elec       q    Type
REMARK                         _______ _______ _______ _____ _____    ______ ____
ROOT
ATOM      1  C   UNL     1     -18.451   7.199  -9.770  0.00  0.00    +0.001 A 
ATOM      2  C   UNL     1     -17.811   6.425  -8.806  0.00  0.00    +0.000 A 
ATOM      3  C   UNL     1     -16.801   5.540  -9.185  0.00  0.00    +0.004 A 
ATOM      4  C   UNL     1     -16.415   5.433 -10.533  0.00  0.00    -0.036 A 
ATOM      5  C   UNL     1     -15.352   4.444 -10.939  0.00  0.00    +0.040 C 
ATOM      6  C   UNL     1     -14.634   4.840 -12.233  0.00  0.00    +0.043 C 
ATOM      7  C   UNL     1     -15.611   5.111 -13.355  0.00  0.00    +0.001 C 
ATOM      8  C   UNL     1     -15.565   4.524 -14.572  0.00  0.00    +0.015 C 
ATOM      9  C   UNL     1     -16.672   6.069 -12.952  0.00  0.00    +0.189 C 
ATOM     10  O   UNL     1     -17.123   6.771 -13.901  0.00  0.00    -0.287 OA
ATOM     11  C   UNL     1     -17.063   6.205 -11.514  0.00  0.00    +0.025 A 
ATOM     12  C   UNL     1     -18.079   7.088 -11.111  0.00  0.00    +0.012 A 
ENDROOT
BRANCH   8  13
ATOM     13  C   UNL     1     -14.579   3.587 -15.127  0.00  0.00    -0.024 A 
ATOM     14  C   UNL     1     -13.234   3.937 -15.300  0.00  0.00    +0.011 A 
ATOM     15  C   UNL     1     -12.354   3.076 -15.969  0.00  0.00    +0.046 A 
ATOM     16  C   UNL     1     -12.829   1.872 -16.486  0.00  0.00    +0.121 A 
ATOM     17  C   UNL     1     -14.153   1.492 -16.279  0.00  0.00    +0.046 A 
ATOM     18  C   UNL     1     -15.029   2.356 -15.617  0.00  0.00    +0.011 A 
BRANCH  16  19
ATOM     19  O   UNL     1     -12.030   1.023 -17.207  0.00  0.00    -0.492 OA
BRANCH  19  20
ATOM     20  C   UNL     1     -11.957  -0.310 -16.653  0.00  0.00    +0.225 C 
ATOM     21  C   UNL     1     -10.538  -0.757 -16.466  0.00  0.00    +0.048 C 
ENDBRANCH  19  20
ENDBRANCH  16  19
ENDBRANCH   8  13
TORSDOF 3
ENDMDL
MODEL 5
REMARK VINA RESULT:      -7.1      3.477      4.234
REMARK  Name = min_compound952.pdb
REMARK  4 active torsions:
REMARK  status: ('A' for Active; 'I' for Inactive)
REMARK    1  A    between atoms: _12  and  _19
REMARK    2  A    between atoms: _17  and  _18
REMARK    3  A    between atoms: _18  and  _20
REMARK    4  A    between atoms: _20  and  _21
REMARK                            x       y       z     vdW  Elec       q    Type
REMARK                         _______ _______ _______ _____ _____    ______ ____
ROOT
ATOM      1  C   UNL     1      -9.308   0.445 -17.314  0.00  0.00    +0.001 A 
ATOM      2  C   UNL     1     -10.060  -0.727 -17.319  0.00  0.00    +0.000 A 
ATOM      3  C   UNL     1     -11.413  -0.684 -16.979  0.00  0.00    +0.004 A 
ATOM      4  C   UNL     1     -12.026   0.535 -16.643  0.00  0.00    -0.036 A 
ATOM      5  C   UNL     1     -13.478   0.566 -16.237  0.00  0.00    +0.040 C 
ATOM      6  C   UNL     1     -14.138   1.925 -16.488  0.00  0.00    +0.043 C 
ATOM      7  C   UNL     1     -13.352   3.054 -15.859  0.00  0.00    +0.001 C 
ATOM      8  C   UNL     1     -13.871   3.970 -15.011  0.00  0.00    +0.015 C 
ATOM      9  C   UNL     1     -11.917   3.016 -16.240  0.00  0.00    +0.189 C 
ATOM     10  O   UNL     1     -11.361   4.149 -16.276  0.00  0.00    -0.287 OA
ATOM     11  C   UNL     1     -11.271   1.722 -16.626  0.00  0.00    +0.025 A 
ATOM     12  C   UNL     1      -9.910   1.657 -16.969  0.00  0.00    +0.012 A 
ENDROOT
BRANCH   8  13
ATOM     13  C   UNL     1     -15.255   4.157 -14.560  0.00  0.00    -0.024 A 
ATOM     14  C   UNL     1     -15.872   5.415 -14.546  0.00  0.00    +0.011 A 
ATOM     15  C   UNL     1     -17.138   5.582 -13.971  0.00  0.00    +0.046 A 
ATOM     16  C   UNL     1     -17.779   4.490 -13.387  0.00  0.00    +0.121 A 
ATOM     17  C   UNL     1     -17.197   3.225 -13.436  0.00  0.00    +0.046 A 
ATOM     18  C   UNL     1     -15.931   3.064 -14.005  0.00  0.00    +0.011 A 
BRANCH  16  19
ATOM     19  O   UNL     1     -18.986   4.609 -12.751  0.00  0.00    -0.492 OA
BRANCH  19  20
ATOM     20  C   UNL     1     -19.079   3.825 -11.539  0.00  0.00    +0.225 C 
ATOM     21  C   UNL     1     -19.308   4.689 -10.335  0.00  0.00    +0.048 C 
ENDBRANCH  19  20
ENDBRANCH  16  19
ENDBRANCH   8  13
TORSDOF 3
ENDMDL
MODEL 6
REMARK VINA RESULT:      -7.0      2.739      7.741
REMARK  Name = min_compound952.pdb
REMARK  4 active torsions:
REMARK  status: ('A' for Active; 'I' for Inactive)
REMARK    1  A    between atoms: _12  and  _19
REMARK    2  A    between atoms: _17  and  _18
REMARK    3  A    between atoms: _18  and  _20
REMARK    4  A    between atoms: _20  and  _21
REMARK                            x       y       z     vdW  Elec       q    Type
REMARK                         _______ _______ _______ _____ _____    ______ ____
ROOT
ATOM      1  C   UNL     1     -19.256   5.605 -14.199  0.00  0.00    +0.001 A 
ATOM      2  C   UNL     1     -19.494   4.275 -13.862  0.00  0.00    +0.000 A 
ATOM      3  C   UNL     1     -18.496   3.320 -14.060  0.00  0.00    +0.004 A 
ATOM      4  C   UNL     1     -17.247   3.692 -14.587  0.00  0.00    -0.036 A 
ATOM      5  C   UNL     1     -16.190   2.646 -14.837  0.00  0.00    +0.040 C 
ATOM      6  C   UNL     1     -14.770   3.219 -14.820  0.00  0.00    +0.043 C 
ATOM      7  C   UNL     1     -14.630   4.398 -15.756  0.00  0.00    +0.001 C 
ATOM      8  C   UNL     1     -13.692   4.503 -16.724  0.00  0.00    +0.015 C 
ATOM      9  C   UNL     1     -15.682   5.422 -15.527  0.00  0.00    +0.189 C 
ATOM     10  O   UNL     1     -15.323   6.603 -15.796  0.00  0.00    -0.287 OA
ATOM     11  C   UNL     1     -17.001   5.031 -14.939  0.00  0.00    +0.025 A 
ATOM     12  C   UNL     1     -18.020   5.977 -14.733  0.00  0.00    +0.012 A 
ENDROOT
BRANCH   8  13
ATOM     13  C   UNL     1     -12.582   3.602 -17.059  0.00  0.00    -0.024 A 
ATOM     14  C   UNL     1     -12.772   2.427 -17.798  0.00  0.00    +0.011 A 
ATOM     15  C   UNL     1     -11.722   1.516 -17.971  0.00  0.00    +0.046 A 
ATOM     16  C   UNL     1     -10.485   1.771 -17.382  0.00  0.00    +0.121 A 
ATOM     17  C   UNL     1     -10.270   2.958 -16.685  0.00  0.00    +0.046 A 
ATOM     18  C   UNL     1     -11.321   3.861 -16.509  0.00  0.00    +0.011 A 
BRANCH  16  19
ATOM     19  O   UNL     1      -9.444   0.884 -17.461  0.00  0.00    -0.492 OA
BRANCH  19  20
ATOM     20  C   UNL     1      -9.842  -0.492 -17.264  0.00  0.00    +0.225 C 
ATOM     21  C   UNL     1      -9.838  -0.869 -15.812  0.00  0.00    +0.048 C 
ENDBRANCH  19  20
ENDBRANCH  16  19
ENDBRANCH   8  13
TORSDOF 3
ENDMDL
MODEL 7
REMARK VINA RESULT:      -7.0      9.441     10.752
REMARK  Name = min_compound952.pdb
REMARK  4 active torsions:
REMARK  status: ('A' for Active; 'I' for Inactive)
REMARK    1  A    between atoms: _12  and  _19
REMARK    2  A    between atoms: _17  and  _18
REMARK    3  A    between atoms: _18  and  _20
REMARK    4  A    between atoms: _20  and  _21
REMARK                            x       y       z     vdW  Elec       q    Type
REMARK                         _______ _______ _______ _____ _____    ______ ____
ROOT
ATOM      1  C   UNL     1     -15.387  -0.615  -2.835  0.00  0.00    +0.001 A 
ATOM      2  C   UNL     1     -14.752  -1.595  -3.592  0.00  0.00    +0.000 A 
ATOM      3  C   UNL     1     -14.603  -1.421  -4.969  0.00  0.00    +0.004 A 
ATOM      4  C   UNL     1     -15.079  -0.257  -5.596  0.00  0.00    -0.036 A 
ATOM      5  C   UNL     1     -14.952  -0.096  -7.090  0.00  0.00    +0.040 C 
ATOM      6  C   UNL     1     -14.937   1.371  -7.531  0.00  0.00    +0.043 C 
ATOM      7  C   UNL     1     -16.122   2.133  -6.981  0.00  0.00    +0.001 C 
ATOM      8  C   UNL     1     -16.987   2.853  -7.730  0.00  0.00    +0.015 C 
ATOM      9  C   UNL     1     -16.264   1.961  -5.513  0.00  0.00    +0.189 C 
ATOM     10  O   UNL     1     -16.784   2.949  -4.923  0.00  0.00    -0.287 OA
ATOM     11  C   UNL     1     -15.731   0.735  -4.840  0.00  0.00    +0.025 A 
ATOM     12  C   UNL     1     -15.872   0.538  -3.456  0.00  0.00    +0.012 A 
ENDROOT
BRANCH   8  13
ATOM     13  C   UNL     1     -16.971   3.138  -9.170  0.00  0.00    -0.024 A 
ATOM     14  C   UNL     1     -15.865   3.719  -9.804  0.00  0.00    +0.011 A 
ATOM     15  C   UNL     1     -15.938   4.115 -11.145  0.00  0.00    +0.046 A 
ATOM     16  C   UNL     1     -17.130   3.950 -11.848  0.00  0.00    +0.121 A 
ATOM     17  C   UNL     1     -18.222   3.332 -11.244  0.00  0.00    +0.046 A 
ATOM     18  C   UNL     1     -18.148   2.944  -9.904  0.00  0.00    +0.011 A 
BRANCH  16  19
ATOM     19  O   UNL     1     -17.280   4.381 -13.140  0.00  0.00    -0.492 OA
BRANCH  19  20
ATOM     20  C   UNL     1     -17.618   3.322 -14.065  0.00  0.00    +0.225 C 
ATOM     21  C   UNL     1     -16.439   2.441 -14.355  0.00  0.00    +0.048 C 
ENDBRANCH  19  20
ENDBRANCH  16  19
ENDBRANCH   8  13
TORSDOF 3
ENDMDL
MODEL 8
REMARK VINA RESULT:      -6.9      2.188      2.838
REMARK  Name = min_compound952.pdb
REMARK  4 active torsions:
REMARK  status: ('A' for Active; 'I' for Inactive)
REMARK    1  A    between atoms: _12  and  _19
REMARK    2  A    between atoms: _17  and  _18
REMARK    3  A    between atoms: _18  and  _20
REMARK    4  A    between atoms: _20  and  _21
REMARK                            x       y       z     vdW  Elec       q    Type
REMARK                         _______ _______ _______ _____ _____    ______ ____
ROOT
ATOM      1  C   UNL     1     -10.073  -0.387 -15.850  0.00  0.00    +0.001 A 
ATOM      2  C   UNL     1     -11.307  -1.001 -16.048  0.00  0.00    +0.000 A 
ATOM      3  C   UNL     1     -12.376  -0.262 -16.558  0.00  0.00    +0.004 A 
ATOM      4  C   UNL     1     -12.214   1.095 -16.885  0.00  0.00    -0.036 A 
ATOM      5  C   UNL     1     -13.385   1.896 -17.395  0.00  0.00    +0.040 C 
ATOM      6  C   UNL     1     -12.960   3.098 -18.244  0.00  0.00    +0.043 C 
ATOM      7  C   UNL     1     -11.955   3.966 -17.521  0.00  0.00    +0.001 C 
ATOM      8  C   UNL     1     -12.090   5.297 -17.325  0.00  0.00    +0.015 C 
ATOM      9  C   UNL     1     -10.809   3.178 -16.999  0.00  0.00    +0.189 C 
ATOM     10  O   UNL     1      -9.724   3.821 -16.937  0.00  0.00    -0.287 OA
ATOM     11  C   UNL     1     -10.973   1.726 -16.679  0.00  0.00    +0.025 A 
ATOM     12  C   UNL     1      -9.911   0.964 -16.163  0.00  0.00    +0.012 A 
ENDROOT
BRANCH   8  13
ATOM     13  C   UNL     1     -13.137   6.214 -17.793  0.00  0.00    -0.024 A 
ATOM     14  C   UNL     1     -14.060   6.800 -16.917  0.00  0.00    +0.011 A 
ATOM     15  C   UNL     1     -15.136   7.549 -17.412  0.00  0.00    +0.046 A 
ATOM     16  C   UNL     1     -15.300   7.692 -18.788  0.00  0.00    +0.121 A 
ATOM     17  C   UNL     1     -14.363   7.154 -19.668  0.00  0.00    +0.046 A 
ATOM     18  C   UNL     1     -13.296   6.402 -19.171  0.00  0.00    +0.011 A 
BRANCH  16  19
ATOM     19  O   UNL     1     -16.370   8.356 -19.330  0.00  0.00    -0.492 OA
BRANCH  19  20
ATOM     20  C   UNL     1     -17.471   7.486 -19.680  0.00  0.00    +0.225 C 
ATOM     21  C   UNL     1     -17.789   7.555 -21.144  0.00  0.00    +0.048 C 
ENDBRANCH  19  20
ENDBRANCH  16  19
ENDBRANCH   8  13
TORSDOF 3
ENDMDL
MODEL 9
REMARK VINA RESULT:      -6.9     11.584     14.142
REMARK  Name = min_compound952.pdb
REMARK  4 active torsions:
REMARK  status: ('A' for Active; 'I' for Inactive)
REMARK    1  A    between atoms: _12  and  _19
REMARK    2  A    between atoms: _17  and  _18
REMARK    3  A    between atoms: _18  and  _20
REMARK    4  A    between atoms: _20  and  _21
REMARK                            x       y       z     vdW  Elec       q    Type
REMARK                         _______ _______ _______ _____ _____    ______ ____
ROOT
ATOM      1  C   UNL     1     -17.663   5.087  -9.778  0.00  0.00    +0.001 A 
ATOM      2  C   UNL     1     -16.791   4.311 -10.538  0.00  0.00    +0.000 A 
ATOM      3  C   UNL     1     -16.142   3.224  -9.953  0.00  0.00    +0.004 A 
ATOM      4  C   UNL     1     -16.370   2.897  -8.605  0.00  0.00    -0.036 A 
ATOM      5  C   UNL     1     -15.632   1.746  -7.970  0.00  0.00    +0.040 C 
ATOM      6  C   UNL     1     -16.379   1.147  -6.774  0.00  0.00    +0.043 C 
ATOM      7  C   UNL     1     -16.753   2.205  -5.761  0.00  0.00    +0.001 C 
ATOM      8  C   UNL     1     -16.446   2.151  -4.445  0.00  0.00    +0.015 C 
ATOM      9  C   UNL     1     -17.462   3.351  -6.385  0.00  0.00    +0.189 C 
ATOM     10  O   UNL     1     -18.285   3.929  -5.621  0.00  0.00    -0.287 OA
ATOM     11  C   UNL     1     -17.242   3.681  -7.828  0.00  0.00    +0.025 A 
ATOM     12  C   UNL     1     -17.884   4.773  -8.436  0.00  0.00    +0.012 A 
ENDROOT
BRANCH   8  13
ATOM     13  C   UNL     1     -15.780   1.090  -3.678  0.00  0.00    -0.024 A 
ATOM     14  C   UNL     1     -14.386   1.033  -3.541  0.00  0.00    +0.011 A 
ATOM     15  C   UNL     1     -13.776  -0.071  -2.932  0.00  0.00    +0.046 A 
ATOM     16  C   UNL     1     -14.560  -1.130  -2.480  0.00  0.00    +0.121 A 
ATOM     17  C   UNL     1     -15.949  -1.064  -2.569  0.00  0.00    +0.046 A 
ATOM     18  C   UNL     1     -16.554   0.035  -3.183  0.00  0.00    +0.011 A 
BRANCH  16  19
ATOM     19  O   UNL     1     -14.012  -2.264  -1.939  0.00  0.00    -0.492 OA
BRANCH  19  20
ATOM     20  C   UNL     1     -14.492  -3.484  -2.549  0.00  0.00    +0.225 C 
ATOM     21  C   UNL     1     -13.769  -4.689  -2.024  0.00  0.00    +0.048 C 
ENDBRANCH  19  20
ENDBRANCH  16  19
ENDBRANCH   8  13
TORSDOF 3
ENDMDL
