MODEL 1
REMARK VINA RESULT:      -7.4      0.000      0.000
REMARK  Name = min_compound961.pdb
REMARK  4 active torsions:
REMARK  status: ('A' for Active; 'I' for Inactive)
REMARK    1  A    between atoms: _10  and  _12
REMARK    2  A    between atoms: _11  and  _13
REMARK    3  A    between atoms: _13  and  _16
REMARK    4  A    between atoms: _18  and  _20
REMARK                            x       y       z     vdW  Elec       q    Type
REMARK                         _______ _______ _______ _____ _____    ______ ____
ROOT
ATOM      1  C   UNL     1     -13.300  -5.695  -1.185  0.00  0.00    +0.002 A 
ATOM      2  C   UNL     1     -14.465  -6.366  -1.201  0.00  0.00    +0.001 A 
ATOM      3  C   UNL     1     -15.678  -5.652  -1.562  0.00  0.00    +0.016 A 
ATOM      4  C   UNL     1     -15.678  -4.236  -1.926  0.00  0.00    +0.030 A 
ATOM      5  S   UNL     1     -17.174  -3.501  -2.361  0.00  0.00    -0.100 S 
ATOM      6  C   UNL     1     -16.614  -2.020  -3.234  0.00  0.00    +0.167 C 
ATOM      7  C   UNL     1     -15.399  -1.474  -2.889  0.00  0.00    +0.130 C 
ATOM      8  N   UNL     1     -14.390  -2.219  -2.231  0.00  0.00    -0.334 N 
ATOM      9  H   UNL     1     -13.541  -2.091  -2.767  0.00  0.00    +0.147 HD
ATOM     10  C   UNL     1     -14.517  -3.553  -1.901  0.00  0.00    +0.041 A 
ATOM     11  C   UNL     1     -13.303  -4.281  -1.523  0.00  0.00    +0.024 A 
ENDROOT
BRANCH   7  12
ATOM     12  C   UNL     1     -14.980  -0.026  -3.151  0.00  0.00    -0.019 A 
ATOM     13  C   UNL     1     -13.640   0.400  -3.138  0.00  0.00    +0.006 A 
ATOM     14  C   UNL     1     -13.243   1.715  -3.416  0.00  0.00    +0.007 A 
ATOM     15  C   UNL     1     -14.187   2.663  -3.780  0.00  0.00    +0.084 A 
ATOM     16  C   UNL     1     -15.522   2.266  -3.868  0.00  0.00    +0.273 A 
ATOM     17  C   UNL     1     -15.914   0.950  -3.565  0.00  0.00    +0.089 A 
BRANCH  16  18
ATOM     18  N   UNL     1     -16.530   3.235  -4.309  0.00  0.00    +0.080 N 
ATOM     19  O   UNL     1     -17.384   2.869  -5.132  0.00  0.00    +0.041 OA
ATOM     20  O   UNL     1     -16.475   4.387  -3.845  0.00  0.00    -0.576 OA
ENDBRANCH  16  18
ENDBRANCH   7  12
BRANCH   6  21
ATOM     21  N   UNL     1     -17.650  -1.706  -4.067  0.00  0.00    -0.189 NA
ATOM     22  H   UNL     1     -17.260  -1.383  -4.953  0.00  0.00    +0.155 HD
BRANCH  21  23
ATOM     23  O   UNL     1     -18.518  -2.769  -4.333  0.00  0.00    -0.314 OA
ATOM     24  H   UNL     1     -18.042  -3.608  -4.231  0.00  0.00    +0.236 HD
ENDBRANCH  21  23
ENDBRANCH   6  21
TORSDOF 4
ENDMDL
MODEL 2
REMARK VINA RESULT:      -7.3      2.880      3.711
REMARK  Name = min_compound961.pdb
REMARK  4 active torsions:
REMARK  status: ('A' for Active; 'I' for Inactive)
REMARK    1  A    between atoms: _10  and  _12
REMARK    2  A    between atoms: _11  and  _13
REMARK    3  A    between atoms: _13  and  _16
REMARK    4  A    between atoms: _18  and  _20
REMARK                            x       y       z     vdW  Elec       q    Type
REMARK                         _______ _______ _______ _____ _____    ______ ____
ROOT
ATOM      1  C   UNL     1     -18.167  -6.094  -1.756  0.00  0.00    +0.002 A 
ATOM      2  C   UNL     1     -17.333  -6.904  -1.083  0.00  0.00    +0.001 A 
ATOM      3  C   UNL     1     -15.934  -6.528  -0.968  0.00  0.00    +0.016 A 
ATOM      4  C   UNL     1     -15.403  -5.293  -1.541  0.00  0.00    +0.030 A 
ATOM      5  S   UNL     1     -13.732  -4.938  -1.319  0.00  0.00    -0.100 S 
ATOM      6  C   UNL     1     -13.685  -3.164  -1.666  0.00  0.00    +0.167 C 
ATOM      7  C   UNL     1     -14.620  -2.638  -2.528  0.00  0.00    +0.130 C 
ATOM      8  N   UNL     1     -15.847  -3.287  -2.807  0.00  0.00    -0.334 N 
ATOM      9  H   UNL     1     -16.576  -2.602  -2.661  0.00  0.00    +0.147 HD
ATOM     10  C   UNL     1     -16.229  -4.481  -2.229  0.00  0.00    +0.041 A 
ATOM     11  C   UNL     1     -17.635  -4.877  -2.348  0.00  0.00    +0.024 A 
ENDROOT
BRANCH   7  12
ATOM     12  C   UNL     1     -14.468  -1.321  -3.293  0.00  0.00    -0.019 A 
ATOM     13  C   UNL     1     -13.881  -0.172  -2.734  0.00  0.00    +0.006 A 
ATOM     14  C   UNL     1     -13.701   1.026  -3.439  0.00  0.00    +0.007 A 
ATOM     15  C   UNL     1     -14.058   1.104  -4.776  0.00  0.00    +0.084 A 
ATOM     16  C   UNL     1     -14.585  -0.033  -5.387  0.00  0.00    +0.273 A 
ATOM     17  C   UNL     1     -14.784  -1.224  -4.667  0.00  0.00    +0.089 A 
BRANCH  16  18
ATOM     18  N   UNL     1     -14.915   0.008  -6.815  0.00  0.00    +0.080 N 
ATOM     19  O   UNL     1     -14.481   0.951  -7.497  0.00  0.00    +0.041 OA
ATOM     20  O   UNL     1     -15.626  -0.901  -7.277  0.00  0.00    -0.576 OA
ENDBRANCH  16  18
ENDBRANCH   7  12
BRANCH   6  21
ATOM     21  N   UNL     1     -12.588  -2.715  -0.987  0.00  0.00    -0.189 NA
ATOM     22  H   UNL     1     -12.895  -2.371  -0.077  0.00  0.00    +0.155 HD
BRANCH  21  23
ATOM     23  O   UNL     1     -11.602  -3.684  -0.779  0.00  0.00    -0.314 OA
ATOM     24  H   UNL     1     -11.475  -3.817   0.173  0.00  0.00    +0.236 HD
ENDBRANCH  21  23
ENDBRANCH   6  21
TORSDOF 4
ENDMDL
MODEL 3
REMARK VINA RESULT:      -7.3      2.838      6.877
REMARK  Name = min_compound961.pdb
REMARK  4 active torsions:
REMARK  status: ('A' for Active; 'I' for Inactive)
REMARK    1  A    between atoms: _10  and  _12
REMARK    2  A    between atoms: _11  and  _13
REMARK    3  A    between atoms: _13  and  _16
REMARK    4  A    between atoms: _18  and  _20
REMARK                            x       y       z     vdW  Elec       q    Type
REMARK                         _______ _______ _______ _____ _____    ______ ____
ROOT
ATOM      1  C   UNL     1     -13.598   2.270  -3.490  0.00  0.00    +0.002 A 
ATOM      2  C   UNL     1     -14.811   2.660  -3.919  0.00  0.00    +0.001 A 
ATOM      3  C   UNL     1     -15.868   1.668  -4.024  0.00  0.00    +0.016 A 
ATOM      4  C   UNL     1     -15.667   0.266  -3.664  0.00  0.00    +0.030 A 
ATOM      5  S   UNL     1     -17.001  -0.816  -3.804  0.00  0.00    -0.100 S 
ATOM      6  C   UNL     1     -16.466  -2.194  -2.764  0.00  0.00    +0.167 C 
ATOM      7  C   UNL     1     -15.117  -2.427  -2.623  0.00  0.00    +0.130 C 
ATOM      8  N   UNL     1     -14.144  -1.429  -2.870  0.00  0.00    -0.334 N 
ATOM      9  H   UNL     1     -13.544  -1.402  -2.056  0.00  0.00    +0.147 HD
ATOM     10  C   UNL     1     -14.452  -0.137  -3.245  0.00  0.00    +0.041 A 
ATOM     11  C   UNL     1     -13.391   0.871  -3.155  0.00  0.00    +0.024 A 
ENDROOT
BRANCH   7  12
ATOM     12  C   UNL     1     -14.494  -3.760  -2.202  0.00  0.00    -0.019 A 
ATOM     13  C   UNL     1     -13.444  -3.857  -1.273  0.00  0.00    +0.006 A 
ATOM     14  C   UNL     1     -12.894  -5.076  -0.852  0.00  0.00    +0.007 A 
ATOM     15  C   UNL     1     -13.423  -6.272  -1.310  0.00  0.00    +0.084 A 
ATOM     16  C   UNL     1     -14.509  -6.222  -2.185  0.00  0.00    +0.273 A 
ATOM     17  C   UNL     1     -15.040  -4.995  -2.621  0.00  0.00    +0.089 A 
BRANCH  16  18
ATOM     18  N   UNL     1     -15.123  -7.474  -2.636  0.00  0.00    +0.080 N 
ATOM     19  O   UNL     1     -14.528  -8.154  -3.487  0.00  0.00    +0.041 OA
ATOM     20  O   UNL     1     -16.223  -7.793  -2.151  0.00  0.00    -0.576 OA
ENDBRANCH  16  18
ENDBRANCH   7  12
BRANCH   6  21
ATOM     21  N   UNL     1     -17.629  -2.793  -2.370  0.00  0.00    -0.189 NA
ATOM     22  H   UNL     1     -18.310  -2.062  -2.163  0.00  0.00    +0.155 HD
BRANCH  21  23
ATOM     23  O   UNL     1     -18.186  -3.652  -3.323  0.00  0.00    -0.314 OA
ATOM     24  H   UNL     1     -18.715  -4.331  -2.875  0.00  0.00    +0.236 HD
ENDBRANCH  21  23
ENDBRANCH   6  21
TORSDOF 4
ENDMDL
MODEL 4
REMARK VINA RESULT:      -7.1     12.705     14.727
REMARK  Name = min_compound961.pdb
REMARK  4 active torsions:
REMARK  status: ('A' for Active; 'I' for Inactive)
REMARK    1  A    between atoms: _10  and  _12
REMARK    2  A    between atoms: _11  and  _13
REMARK    3  A    between atoms: _13  and  _16
REMARK    4  A    between atoms: _18  and  _20
REMARK                            x       y       z     vdW  Elec       q    Type
REMARK                         _______ _______ _______ _____ _____    ______ ____
ROOT
ATOM      1  C   UNL     1     -18.040   3.275 -12.812  0.00  0.00    +0.002 A 
ATOM      2  C   UNL     1     -18.535   4.505 -13.031  0.00  0.00    +0.001 A 
ATOM      3  C   UNL     1     -17.765   5.434 -13.841  0.00  0.00    +0.016 A 
ATOM      4  C   UNL     1     -16.482   5.075 -14.443  0.00  0.00    +0.030 A 
ATOM      5  S   UNL     1     -15.671   6.250 -15.407  0.00  0.00    -0.100 S 
ATOM      6  C   UNL     1     -14.515   5.223 -16.342  0.00  0.00    +0.167 C 
ATOM      7  C   UNL     1     -14.073   4.048 -15.776  0.00  0.00    +0.130 C 
ATOM      8  N   UNL     1     -14.778   3.393 -14.738  0.00  0.00    -0.334 N 
ATOM      9  H   UNL     1     -14.890   2.430 -15.028  0.00  0.00    +0.147 HD
ATOM     10  C   UNL     1     -15.973   3.849 -14.219  0.00  0.00    +0.041 A 
ATOM     11  C   UNL     1     -16.753   2.925 -13.389  0.00  0.00    +0.024 A 
ENDROOT
BRANCH   7  12
ATOM     12  C   UNL     1     -12.791   3.310 -16.170  0.00  0.00    -0.019 A 
ATOM     13  C   UNL     1     -11.552   3.955 -16.326  0.00  0.00    +0.006 A 
ATOM     14  C   UNL     1     -10.365   3.282 -16.646  0.00  0.00    +0.007 A 
ATOM     15  C   UNL     1     -10.361   1.902 -16.770  0.00  0.00    +0.084 A 
ATOM     16  C   UNL     1     -11.557   1.216 -16.559  0.00  0.00    +0.273 A 
ATOM     17  C   UNL     1     -12.749   1.901 -16.261  0.00  0.00    +0.089 A 
BRANCH  16  18
ATOM     18  N   UNL     1     -11.565  -0.248 -16.626  0.00  0.00    +0.080 N 
ATOM     19  O   UNL     1     -10.500  -0.837 -16.871  0.00  0.00    +0.041 OA
ATOM     20  O   UNL     1     -12.646  -0.835 -16.443  0.00  0.00    -0.576 OA
ENDBRANCH  16  18
ENDBRANCH   7  12
BRANCH   6  21
ATOM     21  N   UNL     1     -14.262   5.942 -17.475  0.00  0.00    -0.189 NA
ATOM     22  H   UNL     1     -15.147   6.309 -17.825  0.00  0.00    +0.155 HD
BRANCH  21  23
ATOM     23  O   UNL     1     -13.385   7.016 -17.292  0.00  0.00    -0.314 OA
ATOM     24  H   UNL     1     -13.519   7.396 -16.410  0.00  0.00    +0.236 HD
ENDBRANCH  21  23
ENDBRANCH   6  21
TORSDOF 4
ENDMDL
MODEL 5
REMARK VINA RESULT:      -7.0      3.697      6.946
REMARK  Name = min_compound961.pdb
REMARK  4 active torsions:
REMARK  status: ('A' for Active; 'I' for Inactive)
REMARK    1  A    between atoms: _10  and  _12
REMARK    2  A    between atoms: _11  and  _13
REMARK    3  A    between atoms: _13  and  _16
REMARK    4  A    between atoms: _18  and  _20
REMARK                            x       y       z     vdW  Elec       q    Type
REMARK                         _______ _______ _______ _____ _____    ______ ____
ROOT
ATOM      1  C   UNL     1     -17.018  -0.478  -8.329  0.00  0.00    +0.002 A 
ATOM      2  C   UNL     1     -16.675   0.808  -8.514  0.00  0.00    +0.001 A 
ATOM      3  C   UNL     1     -16.086   1.541  -7.407  0.00  0.00    +0.016 A 
ATOM      4  C   UNL     1     -15.835   0.928  -6.104  0.00  0.00    +0.030 A 
ATOM      5  S   UNL     1     -15.107   1.888  -4.872  0.00  0.00    -0.100 S 
ATOM      6  C   UNL     1     -14.504   0.623  -3.730  0.00  0.00    +0.167 C 
ATOM      7  C   UNL     1     -15.167  -0.581  -3.672  0.00  0.00    +0.130 C 
ATOM      8  N   UNL     1     -15.992  -1.045  -4.725  0.00  0.00    -0.334 N 
ATOM      9  H   UNL     1     -15.687  -1.986  -4.938  0.00  0.00    +0.147 HD
ATOM     10  C   UNL     1     -16.186  -0.357  -5.905  0.00  0.00    +0.041 A 
ATOM     11  C   UNL     1     -16.791  -1.082  -7.026  0.00  0.00    +0.024 A 
ENDROOT
BRANCH   7  12
ATOM     12  C   UNL     1     -15.118  -1.556  -2.493  0.00  0.00    -0.019 A 
ATOM     13  C   UNL     1     -16.149  -1.663  -1.543  0.00  0.00    +0.006 A 
ATOM     14  C   UNL     1     -16.132  -2.581  -0.484  0.00  0.00    +0.007 A 
ATOM     15  C   UNL     1     -15.087  -3.483  -0.364  0.00  0.00    +0.084 A 
ATOM     16  C   UNL     1     -14.075  -3.454  -1.324  0.00  0.00    +0.273 A 
ATOM     17  C   UNL     1     -14.088  -2.515  -2.371  0.00  0.00    +0.089 A 
BRANCH  16  18
ATOM     18  N   UNL     1     -12.991  -4.438  -1.252  0.00  0.00    +0.080 N 
ATOM     19  O   UNL     1     -11.869  -4.059  -0.880  0.00  0.00    +0.041 OA
ATOM     20  O   UNL     1     -13.244  -5.611  -1.580  0.00  0.00    -0.576 OA
ENDBRANCH  16  18
ENDBRANCH   7  12
BRANCH   6  21
ATOM     21  N   UNL     1     -13.471   1.227  -3.071  0.00  0.00    -0.189 NA
ATOM     22  H   UNL     1     -12.617   0.703  -3.266  0.00  0.00    +0.155 HD
BRANCH  21  23
ATOM     23  O   UNL     1     -13.257   2.561  -3.433  0.00  0.00    -0.314 OA
ATOM     24  H   UNL     1     -12.621   2.963  -2.822  0.00  0.00    +0.236 HD
ENDBRANCH  21  23
ENDBRANCH   6  21
TORSDOF 4
ENDMDL
MODEL 6
REMARK VINA RESULT:      -6.8     12.332     14.039
REMARK  Name = min_compound961.pdb
REMARK  4 active torsions:
REMARK  status: ('A' for Active; 'I' for Inactive)
REMARK    1  A    between atoms: _10  and  _12
REMARK    2  A    between atoms: _11  and  _13
REMARK    3  A    between atoms: _13  and  _16
REMARK    4  A    between atoms: _18  and  _20
REMARK                            x       y       z     vdW  Elec       q    Type
REMARK                         _______ _______ _______ _____ _____    ______ ____
ROOT
ATOM      1  C   UNL     1      -9.960  -0.822 -16.437  0.00  0.00    +0.002 A 
ATOM      2  C   UNL     1      -9.212  -0.127 -17.309  0.00  0.00    +0.001 A 
ATOM      3  C   UNL     1      -9.674   1.182 -17.739  0.00  0.00    +0.016 A 
ATOM      4  C   UNL     1     -10.913   1.779 -17.245  0.00  0.00    +0.030 A 
ATOM      5  S   UNL     1     -11.348   3.349 -17.805  0.00  0.00    -0.100 S 
ATOM      6  C   UNL     1     -12.552   3.863 -16.557  0.00  0.00    +0.167 C 
ATOM      7  C   UNL     1     -13.283   2.893 -15.910  0.00  0.00    +0.130 C 
ATOM      8  N   UNL     1     -12.860   1.544 -15.838  0.00  0.00    -0.334 N 
ATOM      9  H   UNL     1     -12.900   1.280 -14.862  0.00  0.00    +0.147 HD
ATOM     10  C   UNL     1     -11.676   1.084 -16.379  0.00  0.00    +0.041 A 
ATOM     11  C   UNL     1     -11.205  -0.241 -15.963  0.00  0.00    +0.024 A 
ENDROOT
BRANCH   7  12
ATOM     12  C   UNL     1     -14.622   3.125 -15.206  0.00  0.00    -0.019 A 
ATOM     13  C   UNL     1     -15.788   2.405 -15.519  0.00  0.00    +0.006 A 
ATOM     14  C   UNL     1     -17.008   2.582 -14.852  0.00  0.00    +0.007 A 
ATOM     15  C   UNL     1     -17.096   3.464 -13.787  0.00  0.00    +0.084 A 
ATOM     16  C   UNL     1     -15.945   4.152 -13.402  0.00  0.00    +0.273 A 
ATOM     17  C   UNL     1     -14.730   3.986 -14.091  0.00  0.00    +0.089 A 
BRANCH  16  18
ATOM     18  N   UNL     1     -15.999   5.045 -12.241  0.00  0.00    +0.080 N 
ATOM     19  O   UNL     1     -16.926   5.868 -12.168  0.00  0.00    +0.041 OA
ATOM     20  O   UNL     1     -15.103   4.944 -11.385  0.00  0.00    -0.576 OA
ENDBRANCH  16  18
ENDBRANCH   7  12
BRANCH   6  21
ATOM     21  N   UNL     1     -12.511   5.228 -16.589  0.00  0.00    -0.189 NA
ATOM     22  H   UNL     1     -12.385   5.566 -15.635  0.00  0.00    +0.155 HD
BRANCH  21  23
ATOM     23  O   UNL     1     -11.484   5.755 -17.378  0.00  0.00    -0.314 OA
ATOM     24  H   UNL     1     -10.782   6.102 -16.806  0.00  0.00    +0.236 HD
ENDBRANCH  21  23
ENDBRANCH   6  21
TORSDOF 4
ENDMDL
MODEL 7
REMARK VINA RESULT:      -6.8     15.350     16.732
REMARK  Name = min_compound961.pdb
REMARK  4 active torsions:
REMARK  status: ('A' for Active; 'I' for Inactive)
REMARK    1  A    between atoms: _10  and  _12
REMARK    2  A    between atoms: _11  and  _13
REMARK    3  A    between atoms: _13  and  _16
REMARK    4  A    between atoms: _18  and  _20
REMARK                            x       y       z     vdW  Elec       q    Type
REMARK                         _______ _______ _______ _____ _____    ______ ____
ROOT
ATOM      1  C   UNL     1      -9.915  -1.094 -16.784  0.00  0.00    +0.002 A 
ATOM      2  C   UNL     1      -9.655  -0.504 -15.605  0.00  0.00    +0.001 A 
ATOM      3  C   UNL     1     -10.288   0.770 -15.306  0.00  0.00    +0.016 A 
ATOM      4  C   UNL     1     -11.211   1.425 -16.231  0.00  0.00    +0.030 A 
ATOM      5  S   UNL     1     -11.922   2.921 -15.759  0.00  0.00    -0.100 S 
ATOM      6  C   UNL     1     -13.331   3.030 -16.886  0.00  0.00    +0.167 C 
ATOM      7  C   UNL     1     -13.241   2.413 -18.113  0.00  0.00    +0.130 C 
ATOM      8  N   UNL     1     -12.327   1.363 -18.370  0.00  0.00    -0.334 N 
ATOM      9  H   UNL     1     -12.862   0.607 -18.777  0.00  0.00    +0.147 HD
ATOM     10  C   UNL     1     -11.469   0.846 -17.420  0.00  0.00    +0.041 A 
ATOM     11  C   UNL     1     -10.815  -0.432 -17.715  0.00  0.00    +0.024 A 
ENDROOT
BRANCH   7  12
ATOM     12  C   UNL     1     -14.083   2.769 -19.340  0.00  0.00    -0.019 A 
ATOM     13  C   UNL     1     -15.184   3.641 -19.288  0.00  0.00    +0.006 A 
ATOM     14  C   UNL     1     -15.936   4.005 -20.414  0.00  0.00    +0.007 A 
ATOM     15  C   UNL     1     -15.573   3.546 -21.670  0.00  0.00    +0.084 A 
ATOM     16  C   UNL     1     -14.447   2.729 -21.775  0.00  0.00    +0.273 A 
ATOM     17  C   UNL     1     -13.711   2.350 -20.637  0.00  0.00    +0.089 A 
BRANCH  16  18
ATOM     18  N   UNL     1     -14.008   2.280 -23.099  0.00  0.00    +0.080 N 
ATOM     19  O   UNL     1     -14.676   2.615 -24.090  0.00  0.00    +0.041 OA
ATOM     20  O   UNL     1     -12.988   1.572 -23.168  0.00  0.00    -0.576 OA
ENDBRANCH  16  18
ENDBRANCH   7  12
BRANCH   6  21
ATOM     21  N   UNL     1     -14.225   3.832 -16.235  0.00  0.00    -0.189 NA
ATOM     22  H   UNL     1     -15.152   3.657 -16.623  0.00  0.00    +0.155 HD
BRANCH  21  23
ATOM     23  O   UNL     1     -14.283   3.626 -14.853  0.00  0.00    -0.314 OA
ATOM     24  H   UNL     1     -13.551   4.098 -14.425  0.00  0.00    +0.236 HD
ENDBRANCH  21  23
ENDBRANCH   6  21
TORSDOF 4
ENDMDL
MODEL 8
REMARK VINA RESULT:      -6.7      6.391      7.932
REMARK  Name = min_compound961.pdb
REMARK  4 active torsions:
REMARK  status: ('A' for Active; 'I' for Inactive)
REMARK    1  A    between atoms: _10  and  _12
REMARK    2  A    between atoms: _11  and  _13
REMARK    3  A    between atoms: _13  and  _16
REMARK    4  A    between atoms: _18  and  _20
REMARK                            x       y       z     vdW  Elec       q    Type
REMARK                         _______ _______ _______ _____ _____    ______ ____
ROOT
ATOM      1  C   UNL     1     -13.919  -0.154  -5.750  0.00  0.00    +0.002 A 
ATOM      2  C   UNL     1     -14.937  -0.411  -4.911  0.00  0.00    +0.001 A 
ATOM      3  C   UNL     1     -16.238   0.174  -5.192  0.00  0.00    +0.016 A 
ATOM      4  C   UNL     1     -16.486   1.015  -6.361  0.00  0.00    +0.030 A 
ATOM      5  S   UNL     1     -18.076   1.632  -6.605  0.00  0.00    -0.100 S 
ATOM      6  C   UNL     1     -18.029   2.084  -8.355  0.00  0.00    +0.167 C 
ATOM      7  C   UNL     1     -16.821   2.438  -8.910  0.00  0.00    +0.130 C 
ATOM      8  N   UNL     1     -15.582   2.060  -8.339  0.00  0.00    -0.334 N 
ATOM      9  H   UNL     1     -15.039   1.636  -9.080  0.00  0.00    +0.147 HD
ATOM     10  C   UNL     1     -15.469   1.287  -7.201  0.00  0.00    +0.041 A 
ATOM     11  C   UNL     1     -14.159   0.702  -6.901  0.00  0.00    +0.024 A 
ENDROOT
BRANCH   7  12
ATOM     12  C   UNL     1     -16.648   3.274 -10.180  0.00  0.00    -0.019 A 
ATOM     13  C   UNL     1     -15.903   4.465 -10.219  0.00  0.00    +0.006 A 
ATOM     14  C   UNL     1     -15.706   5.217 -11.386  0.00  0.00    +0.007 A 
ATOM     15  C   UNL     1     -16.211   4.766 -12.595  0.00  0.00    +0.084 A 
ATOM     16  C   UNL     1     -16.903   3.555 -12.613  0.00  0.00    +0.273 A 
ATOM     17  C   UNL     1     -17.116   2.819 -11.433  0.00  0.00    +0.089 A 
BRANCH  16  18
ATOM     18  N   UNL     1     -17.394   3.029 -13.889  0.00  0.00    +0.080 N 
ATOM     19  O   UNL     1     -18.535   3.346 -14.262  0.00  0.00    +0.041 OA
ATOM     20  O   UNL     1     -16.646   2.277 -14.538  0.00  0.00    -0.576 OA
ENDBRANCH  16  18
ENDBRANCH   7  12
BRANCH   6  21
ATOM     21  N   UNL     1     -19.335   2.035  -8.753  0.00  0.00    -0.189 NA
ATOM     22  H   UNL     1     -19.362   2.101  -9.770  0.00  0.00    +0.155 HD
BRANCH  21  23
ATOM     23  O   UNL     1     -20.010   0.871  -8.373  0.00  0.00    -0.314 OA
ATOM     24  H   UNL     1     -20.287   0.946  -7.446  0.00  0.00    +0.236 HD
ENDBRANCH  21  23
ENDBRANCH   6  21
TORSDOF 4
ENDMDL
MODEL 9
REMARK VINA RESULT:      -6.7     13.380     14.708
REMARK  Name = min_compound961.pdb
REMARK  4 active torsions:
REMARK  status: ('A' for Active; 'I' for Inactive)
REMARK    1  A    between atoms: _10  and  _12
REMARK    2  A    between atoms: _11  and  _13
REMARK    3  A    between atoms: _13  and  _16
REMARK    4  A    between atoms: _18  and  _20
REMARK                            x       y       z     vdW  Elec       q    Type
REMARK                         _______ _______ _______ _____ _____    ______ ____
ROOT
ATOM      1  C   UNL     1     -10.071   0.987 -16.052  0.00  0.00    +0.002 A 
ATOM      2  C   UNL     1     -10.227   0.605 -17.332  0.00  0.00    +0.001 A 
ATOM      3  C   UNL     1     -11.366   1.112 -18.078  0.00  0.00    +0.016 A 
ATOM      4  C   UNL     1     -12.339   2.034 -17.497  0.00  0.00    +0.030 A 
ATOM      5  S   UNL     1     -13.636   2.589 -18.486  0.00  0.00    -0.100 S 
ATOM      6  C   UNL     1     -14.188   4.053 -17.579  0.00  0.00    +0.167 C 
ATOM      7  C   UNL     1     -14.003   4.090 -16.216  0.00  0.00    +0.130 C 
ATOM      8  N   UNL     1     -13.045   3.283 -15.556  0.00  0.00    -0.334 N 
ATOM      9  H   UNL     1     -12.496   3.903 -14.975  0.00  0.00    +0.147 HD
ATOM     10  C   UNL     1     -12.198   2.412 -16.211  0.00  0.00    +0.041 A 
ATOM     11  C   UNL     1     -11.052   1.885 -15.465  0.00  0.00    +0.024 A 
ENDROOT
BRANCH   7  12
ATOM     12  C   UNL     1     -14.790   4.975 -15.246  0.00  0.00    -0.019 A 
ATOM     13  C   UNL     1     -15.203   4.541 -13.974  0.00  0.00    +0.006 A 
ATOM     14  C   UNL     1     -15.888   5.357 -13.064  0.00  0.00    +0.007 A 
ATOM     15  C   UNL     1     -16.142   6.683 -13.375  0.00  0.00    +0.084 A 
ATOM     16  C   UNL     1     -15.692   7.173 -14.601  0.00  0.00    +0.273 A 
ATOM     17  C   UNL     1     -15.026   6.341 -15.519  0.00  0.00    +0.089 A 
BRANCH  16  18
ATOM     18  N   UNL     1     -15.896   8.587 -14.927  0.00  0.00    +0.080 N 
ATOM     19  O   UNL     1     -15.443   9.021 -15.998  0.00  0.00    +0.041 OA
ATOM     20  O   UNL     1     -16.507   9.293 -14.105  0.00  0.00    -0.576 OA
ENDBRANCH  16  18
ENDBRANCH   7  12
BRANCH   6  21
ATOM     21  N   UNL     1     -14.782   4.835 -18.528  0.00  0.00    -0.189 NA
ATOM     22  H   UNL     1     -15.586   5.298 -18.103  0.00  0.00    +0.155 HD
BRANCH  21  23
ATOM     23  O   UNL     1     -13.947   5.818 -19.069  0.00  0.00    -0.314 OA
ATOM     24  H   UNL     1     -13.076   5.434 -19.258  0.00  0.00    +0.236 HD
ENDBRANCH  21  23
ENDBRANCH   6  21
TORSDOF 4
ENDMDL
