MODEL 1
REMARK VINA RESULT:      -7.5      0.000      0.000
REMARK  Name = min_compound966.pdb
REMARK  2 active torsions:
REMARK  status: ('A' for Active; 'I' for Inactive)
REMARK    1  A    between atoms: _7  and  _21
REMARK    2  A    between atoms: _21  and  _22
REMARK                            x       y       z     vdW  Elec       q    Type
REMARK                         _______ _______ _______ _____ _____    ______ ____
ROOT
ATOM      1  C   UNL     1     -17.379   2.663 -14.935  0.00  0.00    +0.001 A 
ATOM      2  C   UNL     1     -17.745   3.998 -14.986  0.00  0.00    +0.002 A 
ATOM      3  C   UNL     1     -16.842   4.974 -15.422  0.00  0.00    +0.026 A 
ATOM      4  C   UNL     1     -15.542   4.591 -15.808  0.00  0.00    +0.050 A 
ATOM      5  N   UNL     1     -14.445   5.305 -16.260  0.00  0.00    -0.340 N 
ATOM      6  C   UNL     1     -13.393   4.436 -16.554  0.00  0.00    +0.052 A 
ATOM      7  C   UNL     1     -12.107   4.699 -17.072  0.00  0.00    +0.028 A 
ATOM      8  C   UNL     1     -11.225   3.636 -17.274  0.00  0.00    +0.030 A 
ATOM      9  C   UNL     1     -11.628   2.342 -16.965  0.00  0.00    +0.073 A 
ATOM     10  N   UNL     1     -10.792   1.224 -17.149  0.00  0.00    -0.313 N 
ATOM     11  C   UNL     1      -9.506   1.144 -17.623  0.00  0.00    +0.092 A 
ATOM     12  C   UNL     1      -9.125  -0.183 -17.614  0.00  0.00    +0.020 A 
ATOM     13  C   UNL     1     -10.217  -0.935 -17.117  0.00  0.00    +0.029 A 
ATOM     14  C   UNL     1     -11.229  -0.041 -16.838  0.00  0.00    +0.065 A 
ATOM     15  C   UNL     1     -12.552  -0.231 -16.320  0.00  0.00    +0.137 A 
ATOM     16  N   UNL     1     -13.363   0.763 -16.129  0.00  0.00    -0.251 NA
ATOM     17  C   UNL     1     -12.913   2.066 -16.451  0.00  0.00    +0.097 A 
ATOM     18  C   UNL     1     -13.814   3.140 -16.245  0.00  0.00    +0.035 A 
ATOM     19  C   UNL     1     -15.162   3.241 -15.772  0.00  0.00    +0.010 A 
ATOM     20  C   UNL     1     -16.097   2.278 -15.327  0.00  0.00    +0.010 A 
ENDROOT
BRANCH   5  21
ATOM     21  C   UNL     1     -14.304   6.739 -16.478  0.00  0.00    +0.119 C 
ATOM     22  C   UNL     1     -14.516   7.323 -17.862  0.00  0.00    +0.027 C 
ENDBRANCH   5  21
TORSDOF 1
ENDMDL
MODEL 2
REMARK VINA RESULT:      -7.5      1.205      3.457
REMARK  Name = min_compound966.pdb
REMARK  2 active torsions:
REMARK  status: ('A' for Active; 'I' for Inactive)
REMARK    1  A    between atoms: _7  and  _21
REMARK    2  A    between atoms: _21  and  _22
REMARK                            x       y       z     vdW  Elec       q    Type
REMARK                         _______ _______ _______ _____ _____    ______ ____
ROOT
ATOM      1  C   UNL     1     -12.781   7.448 -17.976  0.00  0.00    +0.001 A 
ATOM      2  C   UNL     1     -14.071   7.871 -17.699  0.00  0.00    +0.002 A 
ATOM      3  C   UNL     1     -15.030   6.978 -17.207  0.00  0.00    +0.026 A 
ATOM      4  C   UNL     1     -14.677   5.630 -16.997  0.00  0.00    +0.050 A 
ATOM      5  N   UNL     1     -15.385   4.530 -16.543  0.00  0.00    -0.340 N 
ATOM      6  C   UNL     1     -14.549   3.415 -16.473  0.00  0.00    +0.052 A 
ATOM      7  C   UNL     1     -14.816   2.099 -16.038  0.00  0.00    +0.028 A 
ATOM      8  C   UNL     1     -13.790   1.152 -16.072  0.00  0.00    +0.030 A 
ATOM      9  C   UNL     1     -12.530   1.520 -16.529  0.00  0.00    +0.073 A 
ATOM     10  N   UNL     1     -11.451   0.618 -16.585  0.00  0.00    -0.313 N 
ATOM     11  C   UNL     1     -11.384  -0.710 -16.242  0.00  0.00    +0.092 A 
ATOM     12  C   UNL     1     -10.097  -1.151 -16.479  0.00  0.00    +0.020 A 
ATOM     13  C   UNL     1      -9.357  -0.054 -16.981  0.00  0.00    +0.029 A 
ATOM     14  C   UNL     1     -10.218   1.022 -17.037  0.00  0.00    +0.065 A 
ATOM     15  C   UNL     1     -10.022   2.377 -17.459  0.00  0.00    +0.137 A 
ATOM     16  N   UNL     1     -10.981   3.250 -17.430  0.00  0.00    -0.251 NA
ATOM     17  C   UNL     1     -12.252   2.834 -16.963  0.00  0.00    +0.097 A 
ATOM     18  C   UNL     1     -13.286   3.801 -16.930  0.00  0.00    +0.035 A 
ATOM     19  C   UNL     1     -13.371   5.191 -17.262  0.00  0.00    +0.010 A 
ATOM     20  C   UNL     1     -12.424   6.118 -17.759  0.00  0.00    +0.010 A 
ENDROOT
BRANCH   5  21
ATOM     21  C   UNL     1     -16.780   4.438 -16.133  0.00  0.00    +0.119 C 
ATOM     22  C   UNL     1     -17.837   3.989 -17.126  0.00  0.00    +0.027 C 
ENDBRANCH   5  21
TORSDOF 1
ENDMDL
MODEL 3
REMARK VINA RESULT:      -7.2     13.205     14.920
REMARK  Name = min_compound966.pdb
REMARK  2 active torsions:
REMARK  status: ('A' for Active; 'I' for Inactive)
REMARK    1  A    between atoms: _7  and  _21
REMARK    2  A    between atoms: _21  and  _22
REMARK                            x       y       z     vdW  Elec       q    Type
REMARK                         _______ _______ _______ _____ _____    ______ ____
ROOT
ATOM      1  C   UNL     1     -13.322   1.662  -3.375  0.00  0.00    +0.001 A 
ATOM      2  C   UNL     1     -14.161   2.697  -3.755  0.00  0.00    +0.002 A 
ATOM      3  C   UNL     1     -15.532   2.481  -3.933  0.00  0.00    +0.026 A 
ATOM      4  C   UNL     1     -16.062   1.192  -3.728  0.00  0.00    +0.050 A 
ATOM      5  N   UNL     1     -17.341   0.671  -3.834  0.00  0.00    -0.340 N 
ATOM      6  C   UNL     1     -17.343  -0.676  -3.472  0.00  0.00    +0.052 A 
ATOM      7  C   UNL     1     -18.408  -1.599  -3.391  0.00  0.00    +0.028 A 
ATOM      8  C   UNL     1     -18.140  -2.913  -3.000  0.00  0.00    +0.030 A 
ATOM      9  C   UNL     1     -16.836  -3.286  -2.697  0.00  0.00    +0.073 A 
ATOM     10  N   UNL     1     -16.496  -4.591  -2.292  0.00  0.00    -0.313 N 
ATOM     11  C   UNL     1     -17.285  -5.702  -2.119  0.00  0.00    +0.092 A 
ATOM     12  C   UNL     1     -16.477  -6.744  -1.708  0.00  0.00    +0.020 A 
ATOM     13  C   UNL     1     -15.153  -6.249  -1.627  0.00  0.00    +0.029 A 
ATOM     14  C   UNL     1     -15.196  -4.921  -1.994  0.00  0.00    +0.065 A 
ATOM     15  C   UNL     1     -14.168  -3.927  -2.096  0.00  0.00    +0.137 A 
ATOM     16  N   UNL     1     -14.424  -2.711  -2.466  0.00  0.00    -0.251 NA
ATOM     17  C   UNL     1     -15.764  -2.372  -2.771  0.00  0.00    +0.097 A 
ATOM     18  C   UNL     1     -16.028  -1.036  -3.165  0.00  0.00    +0.035 A 
ATOM     19  C   UNL     1     -15.226   0.138  -3.331  0.00  0.00    +0.010 A 
ATOM     20  C   UNL     1     -13.844   0.387  -3.159  0.00  0.00    +0.010 A 
ENDROOT
BRANCH   5  21
ATOM     21  C   UNL     1     -18.579   1.338  -4.214  0.00  0.00    +0.119 C 
ATOM     22  C   UNL     1     -19.000   1.387  -5.672  0.00  0.00    +0.027 C 
ENDBRANCH   5  21
TORSDOF 1
ENDMDL
MODEL 4
REMARK VINA RESULT:      -7.1     10.647     13.592
REMARK  Name = min_compound966.pdb
REMARK  2 active torsions:
REMARK  status: ('A' for Active; 'I' for Inactive)
REMARK    1  A    between atoms: _7  and  _21
REMARK    2  A    between atoms: _21  and  _22
REMARK                            x       y       z     vdW  Elec       q    Type
REMARK                         _______ _______ _______ _____ _____    ______ ____
ROOT
ATOM      1  C   UNL     1     -13.457   1.659  -3.462  0.00  0.00    +0.001 A 
ATOM      2  C   UNL     1     -13.577   0.400  -4.027  0.00  0.00    +0.002 A 
ATOM      3  C   UNL     1     -14.668   0.078  -4.842  0.00  0.00    +0.026 A 
ATOM      4  C   UNL     1     -15.659   1.049  -5.085  0.00  0.00    +0.050 A 
ATOM      5  N   UNL     1     -16.834   1.033  -5.817  0.00  0.00    -0.340 N 
ATOM      6  C   UNL     1     -17.445   2.287  -5.775  0.00  0.00    +0.052 A 
ATOM      7  C   UNL     1     -18.626   2.750  -6.395  0.00  0.00    +0.028 A 
ATOM      8  C   UNL     1     -19.030   4.070  -6.186  0.00  0.00    +0.030 A 
ATOM      9  C   UNL     1     -18.264   4.902  -5.378  0.00  0.00    +0.073 A 
ATOM     10  N   UNL     1     -18.610   6.244  -5.129  0.00  0.00    -0.313 N 
ATOM     11  C   UNL     1     -19.680   6.983  -5.573  0.00  0.00    +0.092 A 
ATOM     12  C   UNL     1     -19.569   8.257  -5.050  0.00  0.00    +0.020 A 
ATOM     13  C   UNL     1     -18.393   8.292  -4.263  0.00  0.00    +0.029 A 
ATOM     14  C   UNL     1     -17.824   7.038  -4.329  0.00  0.00    +0.065 A 
ATOM     15  C   UNL     1     -16.636   6.498  -3.737  0.00  0.00    +0.137 A 
ATOM     16  N   UNL     1     -16.271   5.269  -3.931  0.00  0.00    -0.251 NA
ATOM     17  C   UNL     1     -17.081   4.451  -4.756  0.00  0.00    +0.097 A 
ATOM     18  C   UNL     1     -16.663   3.113  -4.964  0.00  0.00    +0.035 A 
ATOM     19  C   UNL     1     -15.545   2.332  -4.529  0.00  0.00    +0.010 A 
ATOM     20  C   UNL     1     -14.431   2.628  -3.709  0.00  0.00    +0.010 A 
ENDROOT
BRANCH   5  21
ATOM     21  C   UNL     1     -17.424  -0.053  -6.589  0.00  0.00    +0.119 C 
ATOM     22  C   UNL     1     -16.744  -0.544  -7.854  0.00  0.00    +0.027 C 
ENDBRANCH   5  21
TORSDOF 1
ENDMDL
MODEL 5
REMARK VINA RESULT:      -6.8      1.387      3.672
REMARK  Name = min_compound966.pdb
REMARK  2 active torsions:
REMARK  status: ('A' for Active; 'I' for Inactive)
REMARK    1  A    between atoms: _7  and  _21
REMARK    2  A    between atoms: _21  and  _22
REMARK                            x       y       z     vdW  Elec       q    Type
REMARK                         _______ _______ _______ _____ _____    ______ ____
ROOT
ATOM      1  C   UNL     1     -14.793   8.202 -16.561  0.00  0.00    +0.001 A 
ATOM      2  C   UNL     1     -16.030   8.419 -15.976  0.00  0.00    +0.002 A 
ATOM      3  C   UNL     1     -16.791   7.351 -15.488  0.00  0.00    +0.026 A 
ATOM      4  C   UNL     1     -16.292   6.038 -15.600  0.00  0.00    +0.050 A 
ATOM      5  N   UNL     1     -16.800   4.803 -15.234  0.00  0.00    -0.340 N 
ATOM      6  C   UNL     1     -15.878   3.797 -15.526  0.00  0.00    +0.052 A 
ATOM      7  C   UNL     1     -15.941   2.406 -15.300  0.00  0.00    +0.028 A 
ATOM      8  C   UNL     1     -14.868   1.604 -15.698  0.00  0.00    +0.030 A 
ATOM      9  C   UNL     1     -13.763   2.188 -16.304  0.00  0.00    +0.073 A 
ATOM     10  N   UNL     1     -12.647   1.440 -16.725  0.00  0.00    -0.313 N 
ATOM     11  C   UNL     1     -12.402   0.091 -16.652  0.00  0.00    +0.092 A 
ATOM     12  C   UNL     1     -11.157  -0.151 -17.201  0.00  0.00    +0.020 A 
ATOM     13  C   UNL     1     -10.629   1.093 -17.620  0.00  0.00    +0.029 A 
ATOM     14  C   UNL     1     -11.569   2.055 -17.316  0.00  0.00    +0.065 A 
ATOM     15  C   UNL     1     -11.576   3.475 -17.509  0.00  0.00    +0.137 A 
ATOM     16  N   UNL     1     -12.578   4.212 -17.142  0.00  0.00    -0.251 NA
ATOM     17  C   UNL     1     -13.688   3.578 -16.533  0.00  0.00    +0.097 A 
ATOM     18  C   UNL     1     -14.771   4.399 -16.131  0.00  0.00    +0.035 A 
ATOM     19  C   UNL     1     -15.036   5.805 -16.179  0.00  0.00    +0.010 A 
ATOM     20  C   UNL     1     -14.290   6.905 -16.663  0.00  0.00    +0.010 A 
ENDROOT
BRANCH   5  21
ATOM     21  C   UNL     1     -18.070   4.481 -14.595  0.00  0.00    +0.119 C 
ATOM     22  C   UNL     1     -18.242   4.679 -13.100  0.00  0.00    +0.027 C 
ENDBRANCH   5  21
TORSDOF 1
ENDMDL
MODEL 6
REMARK VINA RESULT:      -6.7      2.057      6.471
REMARK  Name = min_compound966.pdb
REMARK  2 active torsions:
REMARK  status: ('A' for Active; 'I' for Inactive)
REMARK    1  A    between atoms: _7  and  _21
REMARK    2  A    between atoms: _21  and  _22
REMARK                            x       y       z     vdW  Elec       q    Type
REMARK                         _______ _______ _______ _____ _____    ______ ____
ROOT
ATOM      1  C   UNL     1     -12.714   7.359 -18.278  0.00  0.00    +0.001 A 
ATOM      2  C   UNL     1     -12.060   6.575 -19.214  0.00  0.00    +0.002 A 
ATOM      3  C   UNL     1     -12.168   5.180 -19.185  0.00  0.00    +0.026 A 
ATOM      4  C   UNL     1     -12.949   4.568 -18.186  0.00  0.00    +0.050 A 
ATOM      5  N   UNL     1     -13.235   3.245 -17.891  0.00  0.00    -0.340 N 
ATOM      6  C   UNL     1     -14.112   3.171 -16.809  0.00  0.00    +0.052 A 
ATOM      7  C   UNL     1     -14.702   2.052 -16.185  0.00  0.00    +0.028 A 
ATOM      8  C   UNL     1     -15.555   2.251 -15.097  0.00  0.00    +0.030 A 
ATOM      9  C   UNL     1     -15.809   3.543 -14.651  0.00  0.00    +0.073 A 
ATOM     10  N   UNL     1     -16.661   3.816 -13.565  0.00  0.00    -0.313 N 
ATOM     11  C   UNL     1     -17.375   2.963 -12.759  0.00  0.00    +0.092 A 
ATOM     12  C   UNL     1     -18.064   3.722 -11.833  0.00  0.00    +0.020 A 
ATOM     13  C   UNL     1     -17.760   5.081 -12.086  0.00  0.00    +0.029 A 
ATOM     14  C   UNL     1     -16.892   5.108 -13.157  0.00  0.00    +0.065 A 
ATOM     15  C   UNL     1     -16.259   6.195 -13.843  0.00  0.00    +0.137 A 
ATOM     16  N   UNL     1     -15.463   6.002 -14.849  0.00  0.00    -0.251 NA
ATOM     17  C   UNL     1     -15.227   4.670 -15.269  0.00  0.00    +0.097 A 
ATOM     18  C   UNL     1     -14.361   4.476 -16.375  0.00  0.00    +0.035 A 
ATOM     19  C   UNL     1     -13.627   5.350 -17.238  0.00  0.00    +0.010 A 
ATOM     20  C   UNL     1     -13.498   6.758 -17.294  0.00  0.00    +0.010 A 
ENDROOT
BRANCH   5  21
ATOM     21  C   UNL     1     -12.784   2.033 -18.563  0.00  0.00    +0.119 C 
ATOM     22  C   UNL     1     -11.645   1.218 -17.977  0.00  0.00    +0.027 C 
ENDBRANCH   5  21
TORSDOF 1
ENDMDL
MODEL 7
REMARK VINA RESULT:      -6.5     12.972     14.652
REMARK  Name = min_compound966.pdb
REMARK  2 active torsions:
REMARK  status: ('A' for Active; 'I' for Inactive)
REMARK    1  A    between atoms: _7  and  _21
REMARK    2  A    between atoms: _21  and  _22
REMARK                            x       y       z     vdW  Elec       q    Type
REMARK                         _______ _______ _______ _____ _____    ______ ____
ROOT
ATOM      1  C   UNL     1     -13.294   2.023  -3.535  0.00  0.00    +0.001 A 
ATOM      2  C   UNL     1     -13.545   0.662  -3.579  0.00  0.00    +0.002 A 
ATOM      3  C   UNL     1     -14.848   0.176  -3.736  0.00  0.00    +0.026 A 
ATOM      4  C   UNL     1     -15.918   1.087  -3.845  0.00  0.00    +0.050 A 
ATOM      5  N   UNL     1     -17.285   0.923  -3.992  0.00  0.00    -0.340 N 
ATOM      6  C   UNL     1     -17.911   2.165  -4.099  0.00  0.00    +0.052 A 
ATOM      7  C   UNL     1     -19.269   2.490  -4.296  0.00  0.00    +0.028 A 
ATOM      8  C   UNL     1     -19.644   3.834  -4.365  0.00  0.00    +0.030 A 
ATOM      9  C   UNL     1     -18.676   4.823  -4.240  0.00  0.00    +0.073 A 
ATOM     10  N   UNL     1     -18.982   6.195  -4.304  0.00  0.00    -0.313 N 
ATOM     11  C   UNL     1     -20.188   6.829  -4.483  0.00  0.00    +0.092 A 
ATOM     12  C   UNL     1     -19.962   8.192  -4.475  0.00  0.00    +0.020 A 
ATOM     13  C   UNL     1     -18.574   8.392  -4.287  0.00  0.00    +0.029 A 
ATOM     14  C   UNL     1     -17.996   7.144  -4.184  0.00  0.00    +0.065 A 
ATOM     15  C   UNL     1     -16.636   6.737  -3.989  0.00  0.00    +0.137 A 
ATOM     16  N   UNL     1     -16.297   5.487  -3.920  0.00  0.00    -0.251 NA
ATOM     17  C   UNL     1     -17.314   4.510  -4.046  0.00  0.00    +0.097 A 
ATOM     18  C   UNL     1     -16.925   3.149  -3.977  0.00  0.00    +0.035 A 
ATOM     19  C   UNL     1     -15.676   2.469  -3.814  0.00  0.00    +0.010 A 
ATOM     20  C   UNL     1     -14.348   2.930  -3.654  0.00  0.00    +0.010 A 
ENDROOT
BRANCH   5  21
ATOM     21  C   UNL     1     -18.061  -0.308  -4.077  0.00  0.00    +0.119 C 
ATOM     22  C   UNL     1     -18.277  -1.158  -2.838  0.00  0.00    +0.027 C 
ENDBRANCH   5  21
TORSDOF 1
ENDMDL
MODEL 8
REMARK VINA RESULT:      -6.5     13.025     15.070
REMARK  Name = min_compound966.pdb
REMARK  2 active torsions:
REMARK  status: ('A' for Active; 'I' for Inactive)
REMARK    1  A    between atoms: _7  and  _21
REMARK    2  A    between atoms: _21  and  _22
REMARK                            x       y       z     vdW  Elec       q    Type
REMARK                         _______ _______ _______ _____ _____    ______ ____
ROOT
ATOM      1  C   UNL     1     -13.656  -4.308  -1.454  0.00  0.00    +0.001 A 
ATOM      2  C   UNL     1     -14.384  -4.551  -0.301  0.00  0.00    +0.002 A 
ATOM      3  C   UNL     1     -15.519  -3.792   0.006  0.00  0.00    +0.026 A 
ATOM      4  C   UNL     1     -15.920  -2.763  -0.869  0.00  0.00    +0.050 A 
ATOM      5  N   UNL     1     -16.963  -1.852  -0.838  0.00  0.00    -0.340 N 
ATOM      6  C   UNL     1     -16.946  -1.062  -1.987  0.00  0.00    +0.052 A 
ATOM      7  C   UNL     1     -17.823  -0.039  -2.406  0.00  0.00    +0.028 A 
ATOM      8  C   UNL     1     -17.580   0.613  -3.617  0.00  0.00    +0.030 A 
ATOM      9  C   UNL     1     -16.484   0.241  -4.387  0.00  0.00    +0.073 A 
ATOM     10  N   UNL     1     -16.182   0.852  -5.619  0.00  0.00    -0.313 N 
ATOM     11  C   UNL     1     -16.826   1.862  -6.292  0.00  0.00    +0.092 A 
ATOM     12  C   UNL     1     -16.137   2.104  -7.465  0.00  0.00    +0.020 A 
ATOM     13  C   UNL     1     -15.040   1.211  -7.506  0.00  0.00    +0.029 A 
ATOM     14  C   UNL     1     -15.092   0.453  -6.355  0.00  0.00    +0.065 A 
ATOM     15  C   UNL     1     -14.248  -0.597  -5.866  0.00  0.00    +0.137 A 
ATOM     16  N   UNL     1     -14.478  -1.193  -4.738  0.00  0.00    -0.251 NA
ATOM     17  C   UNL     1     -15.602  -0.782  -3.980  0.00  0.00    +0.097 A 
ATOM     18  C   UNL     1     -15.843  -1.449  -2.753  0.00  0.00    +0.035 A 
ATOM     19  C   UNL     1     -15.199  -2.514  -2.047  0.00  0.00    +0.010 A 
ATOM     20  C   UNL     1     -14.056  -3.299  -2.329  0.00  0.00    +0.010 A 
ENDROOT
BRANCH   5  21
ATOM     21  C   UNL     1     -18.004  -1.679   0.166  0.00  0.00    +0.119 C 
ATOM     22  C   UNL     1     -17.668  -1.064   1.513  0.00  0.00    +0.027 C 
ENDBRANCH   5  21
TORSDOF 1
ENDMDL
MODEL 9
REMARK VINA RESULT:      -6.4     12.191     14.299
REMARK  Name = min_compound966.pdb
REMARK  2 active torsions:
REMARK  status: ('A' for Active; 'I' for Inactive)
REMARK    1  A    between atoms: _7  and  _21
REMARK    2  A    between atoms: _21  and  _22
REMARK                            x       y       z     vdW  Elec       q    Type
REMARK                         _______ _______ _______ _____ _____    ______ ____
ROOT
ATOM      1  C   UNL     1     -18.551  -0.758  -0.181  0.00  0.00    +0.001 A 
ATOM      2  C   UNL     1     -17.748  -1.655   0.504  0.00  0.00    +0.002 A 
ATOM      3  C   UNL     1     -16.566  -2.141  -0.066  0.00  0.00    +0.026 A 
ATOM      4  C   UNL     1     -16.194  -1.715  -1.356  0.00  0.00    +0.050 A 
ATOM      5  N   UNL     1     -15.118  -2.017  -2.174  0.00  0.00    -0.340 N 
ATOM      6  C   UNL     1     -15.192  -1.281  -3.357  0.00  0.00    +0.052 A 
ATOM      7  C   UNL     1     -14.311  -1.231  -4.459  0.00  0.00    +0.028 A 
ATOM      8  C   UNL     1     -14.621  -0.402  -5.539  0.00  0.00    +0.030 A 
ATOM      9  C   UNL     1     -15.785   0.357  -5.510  0.00  0.00    +0.073 A 
ATOM     10  N   UNL     1     -16.155   1.216  -6.562  0.00  0.00    -0.313 N 
ATOM     11  C   UNL     1     -15.527   1.485  -7.753  0.00  0.00    +0.092 A 
ATOM     12  C   UNL     1     -16.292   2.404  -8.445  0.00  0.00    +0.020 A 
ATOM     13  C   UNL     1     -17.422   2.704  -7.647  0.00  0.00    +0.029 A 
ATOM     14  C   UNL     1     -17.311   1.956  -6.493  0.00  0.00    +0.065 A 
ATOM     15  C   UNL     1     -18.154   1.855  -5.339  0.00  0.00    +0.137 A 
ATOM     16  N   UNL     1     -17.863   1.079  -4.342  0.00  0.00    -0.251 NA
ATOM     17  C   UNL     1     -16.671   0.317  -4.413  0.00  0.00    +0.097 A 
ATOM     18  C   UNL     1     -16.363  -0.520  -3.312  0.00  0.00    +0.035 A 
ATOM     19  C   UNL     1     -16.991  -0.798  -2.056  0.00  0.00    +0.010 A 
ATOM     20  C   UNL     1     -18.180  -0.324  -1.454  0.00  0.00    +0.010 A 
ENDROOT
BRANCH   5  21
ATOM     21  C   UNL     1     -13.998  -2.917  -1.930  0.00  0.00    +0.119 C 
ATOM     22  C   UNL     1     -14.110  -4.387  -2.294  0.00  0.00    +0.027 C 
ENDBRANCH   5  21
TORSDOF 1
ENDMDL
