MODEL 1
REMARK VINA RESULT:      -7.1      0.000      0.000
REMARK  Name = min_compound939.pdb
REMARK  4 active torsions:
REMARK  status: ('A' for Active; 'I' for Inactive)
REMARK    1  A    between atoms: _14  and  _15
REMARK    2  A    between atoms: _15  and  _18
REMARK    3  A    between atoms: _18  and  _19
REMARK    4  A    between atoms: _19  and  _20
REMARK                            x       y       z     vdW  Elec       q    Type
REMARK                         _______ _______ _______ _____ _____    ______ ____
ROOT
ATOM      1  C   UNL     1     -11.129  -0.818 -15.845  0.00  0.00    +0.005 C 
ATOM      2  C   UNL     1      -9.759  -0.210 -15.804  0.00  0.00    +0.005 C 
ATOM      3  C   UNL     1     -10.216   1.327 -15.446  0.00  0.00    +0.037 C 
ATOM      4  C   UNL     1     -11.092   1.897 -16.520  0.00  0.00    -0.023 A 
ATOM      5  C   UNL     1     -11.245   3.262 -16.916  0.00  0.00    +0.075 A 
ATOM      6  C   UNL     1     -10.582   4.451 -16.422  0.00  0.00    +0.260 A 
ATOM      7  O   UNL     1      -9.713   4.458 -15.558  0.00  0.00    -0.267 OA
ATOM      8  N   UNL     1     -11.014   5.610 -17.013  0.00  0.00    -0.301 N 
ATOM      9  H   UNL     1     -10.596   6.464 -16.676  0.00  0.00    +0.171 HD
ATOM     10  C   UNL     1     -11.987   5.639 -17.994  0.00  0.00    +0.220 A 
ATOM     11  N   UNL     1     -12.588   4.595 -18.482  0.00  0.00    -0.216 NA
ATOM     12  C   UNL     1     -12.189   3.421 -17.917  0.00  0.00    +0.116 A 
ATOM     13  S   UNL     1     -12.855   1.916 -18.392  0.00  0.00    -0.073 S 
ATOM     14  C   UNL     1     -11.907   1.071 -17.262  0.00  0.00    -0.004 A 
ATOM     15  C   UNL     1     -11.933  -0.412 -17.102  0.00  0.00    +0.043 C 
ENDROOT
BRANCH  10  16
ATOM     16  C   UNL     1     -12.327   7.043 -18.454  0.00  0.00    +0.375 C 
ATOM     17  O   UNL     1     -13.173   7.710 -17.887  0.00  0.00    -0.242 OA
BRANCH  16  18
ATOM     18  O   UNL     1     -11.430   7.442 -19.378  0.00  0.00    -0.459 OA
BRANCH  18  19
ATOM     19  C   UNL     1     -11.645   6.920 -20.698  0.00  0.00    +0.229 C 
ATOM     20  C   UNL     1     -11.047   7.831 -21.752  0.00  0.00    +0.048 C 
ENDBRANCH  18  19
ENDBRANCH  16  18
ENDBRANCH  10  16
TORSDOF 3
ENDMDL
MODEL 2
REMARK VINA RESULT:      -6.9      1.719      2.378
REMARK  Name = min_compound939.pdb
REMARK  4 active torsions:
REMARK  status: ('A' for Active; 'I' for Inactive)
REMARK    1  A    between atoms: _14  and  _15
REMARK    2  A    between atoms: _15  and  _18
REMARK    3  A    between atoms: _18  and  _19
REMARK    4  A    between atoms: _19  and  _20
REMARK                            x       y       z     vdW  Elec       q    Type
REMARK                         _______ _______ _______ _____ _____    ______ ____
ROOT
ATOM      1  C   UNL     1     -10.266  -0.496 -16.073  0.00  0.00    +0.005 C 
ATOM      2  C   UNL     1     -11.699  -0.747 -16.437  0.00  0.00    +0.005 C 
ATOM      3  C   UNL     1     -11.809   0.355 -17.651  0.00  0.00    +0.037 C 
ATOM      4  C   UNL     1     -11.554   1.743 -17.148  0.00  0.00    -0.023 A 
ATOM      5  C   UNL     1     -12.066   2.981 -17.647  0.00  0.00    +0.075 A 
ATOM      6  C   UNL     1     -12.985   3.232 -18.737  0.00  0.00    +0.260 A 
ATOM      7  O   UNL     1     -13.519   2.363 -19.416  0.00  0.00    -0.267 OA
ATOM      8  N   UNL     1     -13.223   4.564 -18.963  0.00  0.00    -0.301 N 
ATOM      9  H   UNL     1     -13.837   4.781 -19.734  0.00  0.00    +0.171 HD
ATOM     10  C   UNL     1     -12.644   5.570 -18.215  0.00  0.00    +0.220 A 
ATOM     11  N   UNL     1     -11.834   5.388 -17.214  0.00  0.00    -0.216 NA
ATOM     12  C   UNL     1     -11.569   4.075 -16.960  0.00  0.00    +0.116 A 
ATOM     13  S   UNL     1     -10.517   3.594 -15.696  0.00  0.00    -0.073 S 
ATOM     14  C   UNL     1     -10.712   1.950 -16.079  0.00  0.00    -0.004 A 
ATOM     15  C   UNL     1     -10.059   0.841 -15.323  0.00  0.00    +0.043 C 
ENDROOT
BRANCH  10  16
ATOM     16  C   UNL     1     -13.024   6.959 -18.691  0.00  0.00    +0.375 C 
ATOM     17  O   UNL     1     -13.324   7.839 -17.905  0.00  0.00    -0.242 OA
BRANCH  16  18
ATOM     18  O   UNL     1     -12.766   7.069 -20.009  0.00  0.00    -0.459 OA
BRANCH  18  19
ATOM     19  C   UNL     1     -11.376   7.183 -20.349  0.00  0.00    +0.229 C 
ATOM     20  C   UNL     1     -11.198   7.565 -21.805  0.00  0.00    +0.048 C 
ENDBRANCH  18  19
ENDBRANCH  16  18
ENDBRANCH  10  16
TORSDOF 3
ENDMDL
MODEL 3
REMARK VINA RESULT:      -6.9      1.138      1.982
REMARK  Name = min_compound939.pdb
REMARK  4 active torsions:
REMARK  status: ('A' for Active; 'I' for Inactive)
REMARK    1  A    between atoms: _14  and  _15
REMARK    2  A    between atoms: _15  and  _18
REMARK    3  A    between atoms: _18  and  _19
REMARK    4  A    between atoms: _19  and  _20
REMARK                            x       y       z     vdW  Elec       q    Type
REMARK                         _______ _______ _______ _____ _____    ______ ____
ROOT
ATOM      1  C   UNL     1     -10.997  -0.967 -15.944  0.00  0.00    +0.005 C 
ATOM      2  C   UNL     1      -9.650  -0.309 -15.881  0.00  0.00    +0.005 C 
ATOM      3  C   UNL     1     -10.164   1.193 -15.456  0.00  0.00    +0.037 C 
ATOM      4  C   UNL     1     -11.065   1.774 -16.503  0.00  0.00    -0.023 A 
ATOM      5  C   UNL     1     -11.271   3.147 -16.841  0.00  0.00    +0.075 A 
ATOM      6  C   UNL     1     -10.652   4.339 -16.297  0.00  0.00    +0.260 A 
ATOM      7  O   UNL     1      -9.780   4.343 -15.436  0.00  0.00    -0.267 OA
ATOM      8  N   UNL     1     -11.130   5.505 -16.838  0.00  0.00    -0.301 N 
ATOM      9  H   UNL     1     -10.743   6.359 -16.465  0.00  0.00    +0.171 HD
ATOM     10  C   UNL     1     -12.107   5.538 -17.814  0.00  0.00    +0.220 A 
ATOM     11  N   UNL     1     -12.670   4.494 -18.345  0.00  0.00    -0.216 NA
ATOM     12  C   UNL     1     -12.224   3.313 -17.831  0.00  0.00    +0.116 A 
ATOM     13  S   UNL     1     -12.834   1.805 -18.368  0.00  0.00    -0.073 S 
ATOM     14  C   UNL     1     -11.851   0.950 -17.278  0.00  0.00    -0.004 A 
ATOM     15  C   UNL     1     -11.820  -0.539 -17.182  0.00  0.00    +0.043 C 
ENDROOT
BRANCH  10  16
ATOM     16  C   UNL     1     -12.502   6.947 -18.213  0.00  0.00    +0.375 C 
ATOM     17  O   UNL     1     -11.679   7.744 -18.624  0.00  0.00    -0.242 OA
BRANCH  16  18
ATOM     18  O   UNL     1     -13.845   7.048 -18.233  0.00  0.00    -0.459 OA
BRANCH  18  19
ATOM     19  C   UNL     1     -14.467   7.144 -16.943  0.00  0.00    +0.229 C 
ATOM     20  C   UNL     1     -15.074   8.517 -16.727  0.00  0.00    +0.048 C 
ENDBRANCH  18  19
ENDBRANCH  16  18
ENDBRANCH  10  16
TORSDOF 3
ENDMDL
MODEL 4
REMARK VINA RESULT:      -6.8      2.075      3.156
REMARK  Name = min_compound939.pdb
REMARK  4 active torsions:
REMARK  status: ('A' for Active; 'I' for Inactive)
REMARK    1  A    between atoms: _14  and  _15
REMARK    2  A    between atoms: _15  and  _18
REMARK    3  A    between atoms: _18  and  _19
REMARK    4  A    between atoms: _19  and  _20
REMARK                            x       y       z     vdW  Elec       q    Type
REMARK                         _______ _______ _______ _____ _____    ______ ____
ROOT
ATOM      1  C   UNL     1     -10.113  -0.350 -16.141  0.00  0.00    +0.005 C 
ATOM      2  C   UNL     1     -11.506  -0.711 -16.566  0.00  0.00    +0.005 C 
ATOM      3  C   UNL     1     -11.654   0.390 -17.777  0.00  0.00    +0.037 C 
ATOM      4  C   UNL     1     -11.532   1.790 -17.256  0.00  0.00    -0.023 A 
ATOM      5  C   UNL     1     -12.120   2.987 -17.767  0.00  0.00    +0.075 A 
ATOM      6  C   UNL     1     -13.011   3.175 -18.894  0.00  0.00    +0.260 A 
ATOM      7  O   UNL     1     -13.446   2.271 -19.599  0.00  0.00    -0.267 OA
ATOM      8  N   UNL     1     -13.345   4.485 -19.121  0.00  0.00    -0.301 N 
ATOM      9  H   UNL     1     -13.943   4.660 -19.915  0.00  0.00    +0.171 HD
ATOM     10  C   UNL     1     -12.879   5.527 -18.344  0.00  0.00    +0.220 A 
ATOM     11  N   UNL     1     -12.099   5.401 -17.312  0.00  0.00    -0.216 NA
ATOM     12  C   UNL     1     -11.740   4.111 -17.054  0.00  0.00    +0.116 A 
ATOM     13  S   UNL     1     -10.705   3.704 -15.751  0.00  0.00    -0.073 S 
ATOM     14  C   UNL     1     -10.752   2.053 -16.151  0.00  0.00    -0.004 A 
ATOM     15  C   UNL     1     -10.044   0.992 -15.376  0.00  0.00    +0.043 C 
ENDROOT
BRANCH  10  16
ATOM     16  C   UNL     1     -13.350   6.886 -18.826  0.00  0.00    +0.375 C 
ATOM     17  O   UNL     1     -13.846   7.031 -19.928  0.00  0.00    -0.242 OA
BRANCH  16  18
ATOM     18  O   UNL     1     -13.318   7.762 -17.802  0.00  0.00    -0.459 OA
BRANCH  18  19
ATOM     19  C   UNL     1     -14.600   8.252 -17.383  0.00  0.00    +0.229 C 
ATOM     20  C   UNL     1     -15.040   7.600 -16.087  0.00  0.00    +0.048 C 
ENDBRANCH  18  19
ENDBRANCH  16  18
ENDBRANCH  10  16
TORSDOF 3
ENDMDL
MODEL 5
REMARK VINA RESULT:      -6.7      3.169      4.223
REMARK  Name = min_compound939.pdb
REMARK  4 active torsions:
REMARK  status: ('A' for Active; 'I' for Inactive)
REMARK    1  A    between atoms: _14  and  _15
REMARK    2  A    between atoms: _15  and  _18
REMARK    3  A    between atoms: _18  and  _19
REMARK    4  A    between atoms: _19  and  _20
REMARK                            x       y       z     vdW  Elec       q    Type
REMARK                         _______ _______ _______ _____ _____    ______ ____
ROOT
ATOM      1  C   UNL     1     -10.088  -0.666 -17.348  0.00  0.00    +0.005 C 
ATOM      2  C   UNL     1     -10.930  -1.016 -16.158  0.00  0.00    +0.005 C 
ATOM      3  C   UNL     1     -12.275  -0.177 -16.589  0.00  0.00    +0.037 C 
ATOM      4  C   UNL     1     -11.985   1.289 -16.706  0.00  0.00    -0.023 A 
ATOM      5  C   UNL     1     -12.868   2.393 -16.498  0.00  0.00    +0.075 A 
ATOM      6  C   UNL     1     -14.257   2.405 -16.090  0.00  0.00    +0.260 A 
ATOM      7  O   UNL     1     -14.913   1.407 -15.814  0.00  0.00    -0.267 OA
ATOM      8  N   UNL     1     -14.806   3.660 -16.033  0.00  0.00    -0.301 N 
ATOM      9  H   UNL     1     -15.781   3.708 -15.779  0.00  0.00    +0.171 HD
ATOM     10  C   UNL     1     -14.096   4.807 -16.332  0.00  0.00    +0.220 A 
ATOM     11  N   UNL     1     -12.843   4.843 -16.678  0.00  0.00    -0.216 NA
ATOM     12  C   UNL     1     -12.262   3.612 -16.750  0.00  0.00    +0.116 A 
ATOM     13  S   UNL     1     -10.621   3.412 -17.200  0.00  0.00    -0.073 S 
ATOM     14  C   UNL     1     -10.731   1.721 -17.078  0.00  0.00    -0.004 A 
ATOM     15  C   UNL     1      -9.585   0.797 -17.323  0.00  0.00    +0.043 C 
ENDROOT
BRANCH  10  16
ATOM     16  C   UNL     1     -14.935   6.066 -16.244  0.00  0.00    +0.375 C 
ATOM     17  O   UNL     1     -14.791   6.983 -17.032  0.00  0.00    -0.242 OA
BRANCH  16  18
ATOM     18  O   UNL     1     -15.927   5.884 -15.349  0.00  0.00    -0.459 OA
BRANCH  18  19
ATOM     19  C   UNL     1     -15.852   6.716 -14.182  0.00  0.00    +0.229 C 
ATOM     20  C   UNL     1     -15.547   5.897 -12.943  0.00  0.00    +0.048 C 
ENDBRANCH  18  19
ENDBRANCH  16  18
ENDBRANCH  10  16
TORSDOF 3
ENDMDL
MODEL 6
REMARK VINA RESULT:      -6.1      2.940      6.365
REMARK  Name = min_compound939.pdb
REMARK  4 active torsions:
REMARK  status: ('A' for Active; 'I' for Inactive)
REMARK    1  A    between atoms: _14  and  _15
REMARK    2  A    between atoms: _15  and  _18
REMARK    3  A    between atoms: _18  and  _19
REMARK    4  A    between atoms: _19  and  _20
REMARK                            x       y       z     vdW  Elec       q    Type
REMARK                         _______ _______ _______ _____ _____    ______ ____
ROOT
ATOM      1  C   UNL     1     -15.824   7.749 -17.885  0.00  0.00    +0.005 C 
ATOM      2  C   UNL     1     -14.674   8.148 -17.008  0.00  0.00    +0.005 C 
ATOM      3  C   UNL     1     -13.614   6.995 -17.506  0.00  0.00    +0.037 C 
ATOM      4  C   UNL     1     -14.135   5.619 -17.221  0.00  0.00    -0.023 A 
ATOM      5  C   UNL     1     -13.399   4.424 -16.954  0.00  0.00    +0.075 A 
ATOM      6  C   UNL     1     -11.969   4.219 -16.853  0.00  0.00    +0.260 A 
ATOM      7  O   UNL     1     -11.126   5.103 -16.956  0.00  0.00    -0.267 OA
ATOM      8  N   UNL     1     -11.613   2.914 -16.626  0.00  0.00    -0.301 N 
ATOM      9  H   UNL     1     -10.622   2.726 -16.577  0.00  0.00    +0.171 HD
ATOM     10  C   UNL     1     -12.534   1.893 -16.499  0.00  0.00    +0.220 A 
ATOM     11  N   UNL     1     -13.824   2.037 -16.559  0.00  0.00    -0.216 NA
ATOM     12  C   UNL     1     -14.220   3.322 -16.788  0.00  0.00    +0.116 A 
ATOM     13  S   UNL     1     -15.873   3.749 -16.920  0.00  0.00    -0.073 S 
ATOM     14  C   UNL     1     -15.491   5.378 -17.214  0.00  0.00    -0.004 A 
ATOM     15  C   UNL     1     -16.514   6.445 -17.421  0.00  0.00    +0.043 C 
ENDROOT
BRANCH  10  16
ATOM     16  C   UNL     1     -11.892   0.533 -16.302  0.00  0.00    +0.375 C 
ATOM     17  O   UNL     1     -12.386  -0.476 -16.769  0.00  0.00    -0.242 OA
BRANCH  16  18
ATOM     18  O   UNL     1     -10.669   0.689 -15.757  0.00  0.00    -0.459 OA
BRANCH  18  19
ATOM     19  C   UNL     1      -9.702  -0.300 -16.141  0.00  0.00    +0.229 C 
ATOM     20  C   UNL     1      -9.086   0.030 -17.487  0.00  0.00    +0.048 C 
ENDBRANCH  18  19
ENDBRANCH  16  18
ENDBRANCH  10  16
TORSDOF 3
ENDMDL
MODEL 7
REMARK VINA RESULT:      -5.9      3.149      6.649
REMARK  Name = min_compound939.pdb
REMARK  4 active torsions:
REMARK  status: ('A' for Active; 'I' for Inactive)
REMARK    1  A    between atoms: _14  and  _15
REMARK    2  A    between atoms: _15  and  _18
REMARK    3  A    between atoms: _18  and  _19
REMARK    4  A    between atoms: _19  and  _20
REMARK                            x       y       z     vdW  Elec       q    Type
REMARK                         _______ _______ _______ _____ _____    ______ ____
ROOT
ATOM      1  C   UNL     1     -15.684   8.570 -16.367  0.00  0.00    +0.005 C 
ATOM      2  C   UNL     1     -16.660   7.438 -16.237  0.00  0.00    +0.005 C 
ATOM      3  C   UNL     1     -15.650   6.364 -15.511  0.00  0.00    +0.037 C 
ATOM      4  C   UNL     1     -14.478   6.044 -16.388  0.00  0.00    -0.023 A 
ATOM      5  C   UNL     1     -13.710   4.840 -16.448  0.00  0.00    +0.075 A 
ATOM      6  C   UNL     1     -13.869   3.602 -15.714  0.00  0.00    +0.260 A 
ATOM      7  O   UNL     1     -14.763   3.378 -14.905  0.00  0.00    -0.267 OA
ATOM      8  N   UNL     1     -12.912   2.663 -16.000  0.00  0.00    -0.301 N 
ATOM      9  H   UNL     1     -12.972   1.796 -15.488  0.00  0.00    +0.171 HD
ATOM     10  C   UNL     1     -11.894   2.878 -16.909  0.00  0.00    +0.220 A 
ATOM     11  N   UNL     1     -11.729   3.963 -17.606  0.00  0.00    -0.216 NA
ATOM     12  C   UNL     1     -12.661   4.924 -17.347  0.00  0.00    +0.116 A 
ATOM     13  S   UNL     1     -12.635   6.444 -18.136  0.00  0.00    -0.073 S 
ATOM     14  C   UNL     1     -13.995   6.984 -17.272  0.00  0.00    -0.004 A 
ATOM     15  C   UNL     1     -14.620   8.326 -17.464  0.00  0.00    +0.043 C 
ENDROOT
BRANCH  10  16
ATOM     16  C   UNL     1     -10.933   1.710 -17.014  0.00  0.00    +0.375 C 
ATOM     17  O   UNL     1      -9.853   1.823 -17.563  0.00  0.00    -0.242 OA
BRANCH  16  18
ATOM     18  O   UNL     1     -11.380   0.691 -16.252  0.00  0.00    -0.459 OA
BRANCH  18  19
ATOM     19  C   UNL     1     -10.924  -0.610 -16.651  0.00  0.00    +0.229 C 
ATOM     20  C   UNL     1      -9.715  -1.039 -15.842  0.00  0.00    +0.048 C 
ENDBRANCH  18  19
ENDBRANCH  16  18
ENDBRANCH  10  16
TORSDOF 3
ENDMDL
MODEL 8
REMARK VINA RESULT:      -5.9     11.209     12.108
REMARK  Name = min_compound939.pdb
REMARK  4 active torsions:
REMARK  status: ('A' for Active; 'I' for Inactive)
REMARK    1  A    between atoms: _14  and  _15
REMARK    2  A    between atoms: _15  and  _18
REMARK    3  A    between atoms: _18  and  _19
REMARK    4  A    between atoms: _19  and  _20
REMARK                            x       y       z     vdW  Elec       q    Type
REMARK                         _______ _______ _______ _____ _____    ______ ____
ROOT
ATOM      1  C   UNL     1     -13.890   0.278  -3.418  0.00  0.00    +0.005 C 
ATOM      2  C   UNL     1     -13.616   1.752  -3.475  0.00  0.00    +0.005 C 
ATOM      3  C   UNL     1     -15.120   2.234  -3.927  0.00  0.00    +0.037 C 
ATOM      4  C   UNL     1     -15.503   1.646  -5.251  0.00  0.00    -0.023 A 
ATOM      5  C   UNL     1     -16.379   2.181  -6.245  0.00  0.00    +0.075 A 
ATOM      6  C   UNL     1     -17.102   3.436  -6.266  0.00  0.00    +0.260 A 
ATOM      7  O   UNL     1     -17.039   4.293  -5.392  0.00  0.00    -0.267 OA
ATOM      8  N   UNL     1     -17.891   3.601  -7.375  0.00  0.00    -0.301 N 
ATOM      9  H   UNL     1     -18.432   4.452  -7.413  0.00  0.00    +0.171 HD
ATOM     10  C   UNL     1     -17.982   2.659  -8.382  0.00  0.00    +0.220 A 
ATOM     11  N   UNL     1     -17.333   1.533  -8.415  0.00  0.00    -0.216 NA
ATOM     12  C   UNL     1     -16.539   1.330  -7.325  0.00  0.00    +0.116 A 
ATOM     13  S   UNL     1     -15.601  -0.092  -7.143  0.00  0.00    -0.073 S 
ATOM     14  C   UNL     1     -15.008   0.420  -5.635  0.00  0.00    -0.004 A 
ATOM     15  C   UNL     1     -14.035  -0.363  -4.819  0.00  0.00    +0.043 C 
ENDROOT
BRANCH  10  16
ATOM     16  C   UNL     1     -18.956   3.050  -9.476  0.00  0.00    +0.375 C 
ATOM     17  O   UNL     1     -20.106   2.650  -9.475  0.00  0.00    -0.242 OA
BRANCH  16  18
ATOM     18  O   UNL     1     -18.409   4.014 -10.242  0.00  0.00    -0.459 OA
BRANCH  18  19
ATOM     19  C   UNL     1     -17.593   3.540 -11.324  0.00  0.00    +0.229 C 
ATOM     20  C   UNL     1     -16.204   4.145 -11.270  0.00  0.00    +0.048 C 
ENDBRANCH  18  19
ENDBRANCH  16  18
ENDBRANCH  10  16
TORSDOF 3
ENDMDL
MODEL 9
REMARK VINA RESULT:      -5.9     13.179     15.667
REMARK  Name = min_compound939.pdb
REMARK  4 active torsions:
REMARK  status: ('A' for Active; 'I' for Inactive)
REMARK    1  A    between atoms: _14  and  _15
REMARK    2  A    between atoms: _15  and  _18
REMARK    3  A    between atoms: _18  and  _19
REMARK    4  A    between atoms: _19  and  _20
REMARK                            x       y       z     vdW  Elec       q    Type
REMARK                         _______ _______ _______ _____ _____    ______ ____
ROOT
ATOM      1  C   UNL     1     -17.514   3.122  -7.942  0.00  0.00    +0.005 C 
ATOM      2  C   UNL     1     -16.238   2.579  -8.515  0.00  0.00    +0.005 C 
ATOM      3  C   UNL     1     -16.320   1.082  -7.843  0.00  0.00    +0.037 C 
ATOM      4  C   UNL     1     -16.319   1.158  -6.346  0.00  0.00    -0.023 A 
ATOM      5  C   UNL     1     -15.830   0.202  -5.404  0.00  0.00    +0.075 A 
ATOM      6  C   UNL     1     -15.178  -1.072  -5.629  0.00  0.00    +0.260 A 
ATOM      7  O   UNL     1     -14.903  -1.531  -6.732  0.00  0.00    -0.267 OA
ATOM      8  N   UNL     1     -14.879  -1.751  -4.477  0.00  0.00    -0.301 N 
ATOM      9  H   UNL     1     -14.449  -2.657  -4.592  0.00  0.00    +0.171 HD
ATOM     10  C   UNL     1     -15.169  -1.262  -3.217  0.00  0.00    +0.220 A 
ATOM     11  N   UNL     1     -15.730  -0.116  -2.970  0.00  0.00    -0.216 NA
ATOM     12  C   UNL     1     -16.046   0.590  -4.093  0.00  0.00    +0.116 A 
ATOM     13  S   UNL     1     -16.806   2.123  -4.013  0.00  0.00    -0.073 S 
ATOM     14  C   UNL     1     -16.860   2.252  -5.707  0.00  0.00    -0.004 A 
ATOM     15  C   UNL     1     -17.413   3.434  -6.430  0.00  0.00    +0.043 C 
ENDROOT
BRANCH  10  16
ATOM     16  C   UNL     1     -14.787  -2.219  -2.105  0.00  0.00    +0.375 C 
ATOM     17  O   UNL     1     -15.094  -2.003  -0.947  0.00  0.00    -0.242 OA
BRANCH  16  18
ATOM     18  O   UNL     1     -14.290  -3.353  -2.639  0.00  0.00    -0.459 OA
BRANCH  18  19
ATOM     19  C   UNL     1     -13.543  -4.176  -1.730  0.00  0.00    +0.229 C 
ATOM     20  C   UNL     1     -13.772  -5.648  -2.008  0.00  0.00    +0.048 C 
ENDBRANCH  18  19
ENDBRANCH  16  18
ENDBRANCH  10  16
TORSDOF 3
ENDMDL
