MODEL 1
REMARK VINA RESULT:      -5.9      0.000      0.000
REMARK  Name = min_compound957.pdb
REMARK  7 active torsions:
REMARK  status: ('A' for Active; 'I' for Inactive)
REMARK    1  A    between atoms: _2  and  _14
REMARK    2  A    between atoms: _4  and  _18
REMARK    3  A    between atoms: _5  and  _17
REMARK    4  A    between atoms: _6  and  _18
REMARK    5  A    between atoms: _14  and  _15
REMARK    6  A    between atoms: _14  and  _16
REMARK    7  A    between atoms: _17  and  _19
REMARK                            x       y       z     vdW  Elec       q    Type
REMARK                         _______ _______ _______ _____ _____    ______ ____
ROOT
ATOM      1  N   UNL     1     -16.248   4.413 -16.410  0.00  0.00    -0.240 NA
ATOM      2  C   UNL     1     -15.549   4.908 -17.469  0.00  0.00    +0.136 A 
ATOM      3  C   UNL     1     -14.190   4.762 -17.282  0.00  0.00    +0.064 A 
ATOM      4  N   UNL     1     -14.077   4.023 -16.120  0.00  0.00    -0.325 N 
ATOM      5  C   UNL     1     -15.348   3.957 -15.562  0.00  0.00    +0.113 A 
ENDROOT
BRANCH   5   6
ATOM      6  C   UNL     1     -15.655   3.471 -14.168  0.00  0.00    +0.049 C 
ATOM      7  C   UNL     1     -17.004   2.760 -14.126  0.00  0.00    +0.015 C 
ATOM      8  C   UNL     1     -15.635   4.637 -13.174  0.00  0.00    +0.015 C 
ENDBRANCH   5   6
BRANCH   3   9
ATOM      9  C   UNL     1     -13.086   5.294 -18.107  0.00  0.00    +0.210 C 
BRANCH   9  10
ATOM     10  O   UNL     1     -12.635   6.470 -17.458  0.00  0.00    -0.389 OA
ATOM     11  H   UNL     1     -12.482   6.230 -16.526  0.00  0.00    +0.210 HD
ENDBRANCH   9  10
ENDBRANCH   3   9
BRANCH   4  12
ATOM     12  C   UNL     1     -12.864   3.505 -15.479  0.00  0.00    +0.161 C 
BRANCH  12  13
ATOM     13  C   UNL     1     -12.083   2.448 -16.234  0.00  0.00    +0.009 A 
ATOM     14  C   UNL     1     -12.596   1.162 -16.502  0.00  0.00    +0.047 A 
ATOM     15  C   UNL     1     -11.850   0.214 -17.219  0.00  0.00    +0.020 A 
ATOM     16  C   UNL     1     -10.559   0.505 -17.641  0.00  0.00    +0.003 A 
ATOM     17  C   UNL     1     -10.004   1.740 -17.332  0.00  0.00    +0.020 A 
ATOM     18 CL   UNL     1     -14.144   0.637 -15.942  0.00  0.00    -0.083 Cl
ATOM     19  C   UNL     1     -10.751   2.697 -16.631  0.00  0.00    +0.047 A 
ATOM     20 CL   UNL     1      -9.929   4.174 -16.255  0.00  0.00    -0.083 Cl
ENDBRANCH  12  13
ENDBRANCH   4  12
TORSDOF 5
ENDMDL
MODEL 2
REMARK VINA RESULT:      -5.8      0.212      2.109
REMARK  Name = min_compound957.pdb
REMARK  7 active torsions:
REMARK  status: ('A' for Active; 'I' for Inactive)
REMARK    1  A    between atoms: _2  and  _14
REMARK    2  A    between atoms: _4  and  _18
REMARK    3  A    between atoms: _5  and  _17
REMARK    4  A    between atoms: _6  and  _18
REMARK    5  A    between atoms: _14  and  _15
REMARK    6  A    between atoms: _14  and  _16
REMARK    7  A    between atoms: _17  and  _19
REMARK                            x       y       z     vdW  Elec       q    Type
REMARK                         _______ _______ _______ _____ _____    ______ ____
ROOT
ATOM      1  N   UNL     1     -16.093   4.606 -16.327  0.00  0.00    -0.240 NA
ATOM      2  C   UNL     1     -15.360   5.028 -17.394  0.00  0.00    +0.136 A 
ATOM      3  C   UNL     1     -14.015   4.788 -17.201  0.00  0.00    +0.064 A 
ATOM      4  N   UNL     1     -13.957   4.065 -16.025  0.00  0.00    -0.325 N 
ATOM      5  C   UNL     1     -15.230   4.102 -15.468  0.00  0.00    +0.113 A 
ENDROOT
BRANCH   5   6
ATOM      6  C   UNL     1     -15.572   3.668 -14.066  0.00  0.00    +0.049 C 
ATOM      7  C   UNL     1     -16.734   2.679 -14.072  0.00  0.00    +0.015 C 
ATOM      8  C   UNL     1     -15.908   4.881 -13.192  0.00  0.00    +0.015 C 
ENDBRANCH   5   6
BRANCH   3   9
ATOM      9  C   UNL     1     -12.875   5.222 -18.034  0.00  0.00    +0.210 C 
BRANCH   9  10
ATOM     10  O   UNL     1     -12.370   6.402 -17.433  0.00  0.00    -0.389 OA
ATOM     11  H   UNL     1     -11.434   6.228 -17.227  0.00  0.00    +0.210 HD
ENDBRANCH   9  10
ENDBRANCH   3   9
BRANCH   4  12
ATOM     12  C   UNL     1     -12.785   3.474 -15.371  0.00  0.00    +0.161 C 
BRANCH  12  13
ATOM     13  C   UNL     1     -12.023   2.418 -16.146  0.00  0.00    +0.009 A 
ATOM     14  C   UNL     1     -10.717   2.624 -16.639  0.00  0.00    +0.047 A 
ATOM     15  C   UNL     1     -10.036   1.616 -17.339  0.00  0.00    +0.020 A 
ATOM     16  C   UNL     1     -10.654   0.401 -17.608  0.00  0.00    +0.003 A 
ATOM     17  C   UNL     1     -11.964   0.198 -17.193  0.00  0.00    +0.020 A 
ATOM     18 CL   UNL     1      -9.877   4.124 -16.465  0.00  0.00    -0.083 Cl
ATOM     19  C   UNL     1     -12.643   1.194 -16.478  0.00  0.00    +0.047 A 
ATOM     20 CL   UNL     1     -14.289   0.844 -16.068  0.00  0.00    -0.083 Cl
ENDBRANCH  12  13
ENDBRANCH   4  12
TORSDOF 5
ENDMDL
MODEL 3
REMARK VINA RESULT:      -5.8     10.434     12.692
REMARK  Name = min_compound957.pdb
REMARK  7 active torsions:
REMARK  status: ('A' for Active; 'I' for Inactive)
REMARK    1  A    between atoms: _2  and  _14
REMARK    2  A    between atoms: _4  and  _18
REMARK    3  A    between atoms: _5  and  _17
REMARK    4  A    between atoms: _6  and  _18
REMARK    5  A    between atoms: _14  and  _15
REMARK    6  A    between atoms: _14  and  _16
REMARK    7  A    between atoms: _17  and  _19
REMARK                            x       y       z     vdW  Elec       q    Type
REMARK                         _______ _______ _______ _____ _____    ______ ____
ROOT
ATOM      1  N   UNL     1     -18.143   0.153  -7.436  0.00  0.00    -0.240 NA
ATOM      2  C   UNL     1     -18.937  -0.710  -6.743  0.00  0.00    +0.136 A 
ATOM      3  C   UNL     1     -18.769  -0.557  -5.382  0.00  0.00    +0.064 A 
ATOM      4  N   UNL     1     -17.940   0.541  -5.255  0.00  0.00    -0.325 N 
ATOM      5  C   UNL     1     -17.483   0.847  -6.531  0.00  0.00    +0.113 A 
ENDROOT
BRANCH   5   6
ATOM      6  C   UNL     1     -16.361   1.806  -6.839  0.00  0.00    +0.049 C 
ATOM      7  C   UNL     1     -16.782   2.810  -7.908  0.00  0.00    +0.015 C 
ATOM      8  C   UNL     1     -15.109   1.045  -7.286  0.00  0.00    +0.015 C 
ENDBRANCH   5   6
BRANCH   3   9
ATOM      9  C   UNL     1     -19.318  -1.387  -4.289  0.00  0.00    +0.210 C 
BRANCH   9  10
ATOM     10  O   UNL     1     -18.687  -2.652  -4.395  0.00  0.00    -0.389 OA
ATOM     11  H   UNL     1     -19.307  -3.301  -4.017  0.00  0.00    +0.210 HD
ENDBRANCH   9  10
ENDBRANCH   3   9
BRANCH   4  12
ATOM     12  C   UNL     1     -17.485   1.208  -4.031  0.00  0.00    +0.161 C 
BRANCH  12  13
ATOM     13  C   UNL     1     -15.988   1.288  -3.805  0.00  0.00    +0.009 A 
ATOM     14  C   UNL     1     -15.201   0.161  -3.488  0.00  0.00    +0.047 A 
ATOM     15  C   UNL     1     -13.814   0.271  -3.302  0.00  0.00    +0.020 A 
ATOM     16  C   UNL     1     -13.188   1.509  -3.376  0.00  0.00    +0.003 A 
ATOM     17  C   UNL     1     -13.950   2.644  -3.619  0.00  0.00    +0.020 A 
ATOM     18 CL   UNL     1     -15.871  -1.415  -3.263  0.00  0.00    -0.083 Cl
ATOM     19  C   UNL     1     -15.333   2.538  -3.823  0.00  0.00    +0.047 A 
ATOM     20 CL   UNL     1     -16.182   4.030  -4.059  0.00  0.00    -0.083 Cl
ENDBRANCH  12  13
ENDBRANCH   4  12
TORSDOF 5
ENDMDL
MODEL 4
REMARK VINA RESULT:      -5.6     10.621     12.409
REMARK  Name = min_compound957.pdb
REMARK  7 active torsions:
REMARK  status: ('A' for Active; 'I' for Inactive)
REMARK    1  A    between atoms: _2  and  _14
REMARK    2  A    between atoms: _4  and  _18
REMARK    3  A    between atoms: _5  and  _17
REMARK    4  A    between atoms: _6  and  _18
REMARK    5  A    between atoms: _14  and  _15
REMARK    6  A    between atoms: _14  and  _16
REMARK    7  A    between atoms: _17  and  _19
REMARK                            x       y       z     vdW  Elec       q    Type
REMARK                         _______ _______ _______ _____ _____    ______ ____
ROOT
ATOM      1  N   UNL     1     -17.934   1.588  -7.673  0.00  0.00    -0.240 NA
ATOM      2  C   UNL     1     -18.952   2.291  -7.104  0.00  0.00    +0.136 A 
ATOM      3  C   UNL     1     -18.997   2.086  -5.740  0.00  0.00    +0.064 A 
ATOM      4  N   UNL     1     -17.870   1.335  -5.465  0.00  0.00    -0.325 N 
ATOM      5  C   UNL     1     -17.338   0.947  -6.688  0.00  0.00    +0.113 A 
ENDROOT
BRANCH   5   6
ATOM      6  C   UNL     1     -16.261  -0.091  -6.871  0.00  0.00    +0.049 C 
ATOM      7  C   UNL     1     -14.929   0.565  -7.224  0.00  0.00    +0.015 C 
ATOM      8  C   UNL     1     -16.661  -1.101  -7.952  0.00  0.00    +0.015 C 
ENDBRANCH   5   6
BRANCH   3   9
ATOM      9  C   UNL     1     -20.024   2.533  -4.777  0.00  0.00    +0.210 C 
BRANCH   9  10
ATOM     10  O   UNL     1     -21.104   1.623  -4.895  0.00  0.00    -0.389 OA
ATOM     11  H   UNL     1     -21.707   1.814  -4.155  0.00  0.00    +0.210 HD
ENDBRANCH   9  10
ENDBRANCH   3   9
BRANCH   4  12
ATOM     12  C   UNL     1     -17.366   0.885  -4.163  0.00  0.00    +0.161 C 
BRANCH  12  13
ATOM     13  C   UNL     1     -15.894   1.108  -3.879  0.00  0.00    +0.009 A 
ATOM     14  C   UNL     1     -15.022   0.067  -3.496  0.00  0.00    +0.047 A 
ATOM     15  C   UNL     1     -13.661   0.309  -3.257  0.00  0.00    +0.020 A 
ATOM     16  C   UNL     1     -13.146   1.596  -3.344  0.00  0.00    +0.003 A 
ATOM     17  C   UNL     1     -13.997   2.650  -3.652  0.00  0.00    +0.020 A 
ATOM     18 CL   UNL     1     -15.556  -1.558  -3.250  0.00  0.00    -0.083 Cl
ATOM     19  C   UNL     1     -15.355   2.412  -3.909  0.00  0.00    +0.047 A 
ATOM     20 CL   UNL     1     -16.323   3.813  -4.224  0.00  0.00    -0.083 Cl
ENDBRANCH  12  13
ENDBRANCH   4  12
TORSDOF 5
ENDMDL
MODEL 5
REMARK VINA RESULT:      -5.6     11.121     12.642
REMARK  Name = min_compound957.pdb
REMARK  7 active torsions:
REMARK  status: ('A' for Active; 'I' for Inactive)
REMARK    1  A    between atoms: _2  and  _14
REMARK    2  A    between atoms: _4  and  _18
REMARK    3  A    between atoms: _5  and  _17
REMARK    4  A    between atoms: _6  and  _18
REMARK    5  A    between atoms: _14  and  _15
REMARK    6  A    between atoms: _14  and  _16
REMARK    7  A    between atoms: _17  and  _19
REMARK                            x       y       z     vdW  Elec       q    Type
REMARK                         _______ _______ _______ _____ _____    ______ ____
ROOT
ATOM      1  N   UNL     1     -18.883  -0.142  -7.038  0.00  0.00    -0.240 NA
ATOM      2  C   UNL     1     -17.665  -0.507  -7.524  0.00  0.00    +0.136 A 
ATOM      3  C   UNL     1     -16.702  -0.466  -6.537  0.00  0.00    +0.064 A 
ATOM      4  N   UNL     1     -17.405  -0.199  -5.378  0.00  0.00    -0.325 N 
ATOM      5  C   UNL     1     -18.701   0.124  -5.760  0.00  0.00    +0.113 A 
ENDROOT
BRANCH   5   6
ATOM      6  C   UNL     1     -19.743   0.730  -4.856  0.00  0.00    +0.049 C 
ATOM      7  C   UNL     1     -20.693  -0.340  -4.326  0.00  0.00    +0.015 C 
ATOM      8  C   UNL     1     -20.526   1.822  -5.591  0.00  0.00    +0.015 C 
ENDBRANCH   5   6
BRANCH   3   9
ATOM      9  C   UNL     1     -15.240  -0.638  -6.670  0.00  0.00    +0.210 C 
BRANCH   9  10
ATOM     10  O   UNL     1     -14.963  -1.980  -6.307  0.00  0.00    -0.389 OA
ATOM     11  H   UNL     1     -13.997  -2.089  -6.371  0.00  0.00    +0.210 HD
ENDBRANCH   9  10
ENDBRANCH   3   9
BRANCH   4  12
ATOM     12  C   UNL     1     -16.903  -0.116  -4.002  0.00  0.00    +0.161 C 
BRANCH  12  13
ATOM     13  C   UNL     1     -15.617   0.655  -3.781  0.00  0.00    +0.009 A 
ATOM     14  C   UNL     1     -14.425   0.044  -3.340  0.00  0.00    +0.047 A 
ATOM     15  C   UNL     1     -13.248   0.788  -3.162  0.00  0.00    +0.020 A 
ATOM     16  C   UNL     1     -13.243   2.162  -3.371  0.00  0.00    +0.003 A 
ATOM     17  C   UNL     1     -14.421   2.799  -3.740  0.00  0.00    +0.020 A 
ATOM     18 CL   UNL     1     -14.324  -1.635  -2.944  0.00  0.00    -0.083 Cl
ATOM     19  C   UNL     1     -15.595   2.058  -3.936  0.00  0.00    +0.047 A 
ATOM     20 CL   UNL     1     -17.011   2.973  -4.337  0.00  0.00    -0.083 Cl
ENDBRANCH  12  13
ENDBRANCH   4  12
TORSDOF 5
ENDMDL
MODEL 6
REMARK VINA RESULT:      -5.6      2.352      3.213
REMARK  Name = min_compound957.pdb
REMARK  7 active torsions:
REMARK  status: ('A' for Active; 'I' for Inactive)
REMARK    1  A    between atoms: _2  and  _14
REMARK    2  A    between atoms: _4  and  _18
REMARK    3  A    between atoms: _5  and  _17
REMARK    4  A    between atoms: _6  and  _18
REMARK    5  A    between atoms: _14  and  _15
REMARK    6  A    between atoms: _14  and  _16
REMARK    7  A    between atoms: _17  and  _19
REMARK                            x       y       z     vdW  Elec       q    Type
REMARK                         _______ _______ _______ _____ _____    ______ ____
ROOT
ATOM      1  N   UNL     1     -16.598   3.847 -17.404  0.00  0.00    -0.240 NA
ATOM      2  C   UNL     1     -16.606   4.216 -18.715  0.00  0.00    +0.136 A 
ATOM      3  C   UNL     1     -15.412   3.897 -19.329  0.00  0.00    +0.064 A 
ATOM      4  N   UNL     1     -14.712   3.181 -18.377  0.00  0.00    -0.325 N 
ATOM      5  C   UNL     1     -15.420   3.299 -17.187  0.00  0.00    +0.113 A 
ENDROOT
BRANCH   5   6
ATOM      6  C   UNL     1     -14.901   2.896 -15.830  0.00  0.00    +0.049 C 
ATOM      7  C   UNL     1     -15.912   2.018 -15.100  0.00  0.00    +0.015 C 
ATOM      8  C   UNL     1     -14.565   4.134 -14.992  0.00  0.00    +0.015 C 
ENDBRANCH   5   6
BRANCH   3   9
ATOM      9  C   UNL     1     -14.952   4.255 -20.687  0.00  0.00    +0.210 C 
BRANCH   9  10
ATOM     10  O   UNL     1     -15.576   3.341 -21.572  0.00  0.00    -0.389 OA
ATOM     11  H   UNL     1     -16.504   3.626 -21.654  0.00  0.00    +0.210 HD
ENDBRANCH   9  10
ENDBRANCH   3   9
BRANCH   4  12
ATOM     12  C   UNL     1     -13.406   2.524 -18.502  0.00  0.00    +0.161 C 
BRANCH  12  13
ATOM     13  C   UNL     1     -12.325   2.950 -17.530  0.00  0.00    +0.009 A 
ATOM     14  C   UNL     1     -11.764   4.244 -17.528  0.00  0.00    +0.047 A 
ATOM     15  C   UNL     1     -10.775   4.608 -16.601  0.00  0.00    +0.020 A 
ATOM     16  C   UNL     1     -10.285   3.680 -15.689  0.00  0.00    +0.003 A 
ATOM     17  C   UNL     1     -10.772   2.380 -15.715  0.00  0.00    +0.020 A 
ATOM     18 CL   UNL     1     -12.207   5.458 -18.675  0.00  0.00    -0.083 Cl
ATOM     19  C   UNL     1     -11.773   2.015 -16.627  0.00  0.00    +0.047 A 
ATOM     20 CL   UNL     1     -12.254   0.352 -16.600  0.00  0.00    -0.083 Cl
ENDBRANCH  12  13
ENDBRANCH   4  12
TORSDOF 5
ENDMDL
MODEL 7
REMARK VINA RESULT:      -5.5     10.602     12.598
REMARK  Name = min_compound957.pdb
REMARK  7 active torsions:
REMARK  status: ('A' for Active; 'I' for Inactive)
REMARK    1  A    between atoms: _2  and  _14
REMARK    2  A    between atoms: _4  and  _18
REMARK    3  A    between atoms: _5  and  _17
REMARK    4  A    between atoms: _6  and  _18
REMARK    5  A    between atoms: _14  and  _15
REMARK    6  A    between atoms: _14  and  _16
REMARK    7  A    between atoms: _17  and  _19
REMARK                            x       y       z     vdW  Elec       q    Type
REMARK                         _______ _______ _______ _____ _____    ______ ____
ROOT
ATOM      1  N   UNL     1     -18.194   1.372  -7.488  0.00  0.00    -0.240 NA
ATOM      2  C   UNL     1     -19.290   1.873  -6.855  0.00  0.00    +0.136 A 
ATOM      3  C   UNL     1     -19.253   1.600  -5.503  0.00  0.00    +0.064 A 
ATOM      4  N   UNL     1     -18.011   1.030  -5.298  0.00  0.00    -0.325 N 
ATOM      5  C   UNL     1     -17.468   0.790  -6.555  0.00  0.00    +0.113 A 
ENDROOT
BRANCH   5   6
ATOM      6  C   UNL     1     -16.244  -0.049  -6.822  0.00  0.00    +0.049 C 
ATOM      7  C   UNL     1     -15.070   0.824  -7.255  0.00  0.00    +0.015 C 
ATOM      8  C   UNL     1     -16.540  -1.111  -7.885  0.00  0.00    +0.015 C 
ENDBRANCH   5   6
BRANCH   3   9
ATOM      9  C   UNL     1     -20.302   1.829  -4.489  0.00  0.00    +0.210 C 
BRANCH   9  10
ATOM     10  O   UNL     1     -19.955   3.031  -3.821  0.00  0.00    -0.389 OA
ATOM     11  H   UNL     1     -20.234   2.922  -2.894  0.00  0.00    +0.210 HD
ENDBRANCH   9  10
ENDBRANCH   3   9
BRANCH   4  12
ATOM     12  C   UNL     1     -17.394   0.607  -4.036  0.00  0.00    +0.161 C 
BRANCH  12  13
ATOM     13  C   UNL     1     -15.958   1.027  -3.796  0.00  0.00    +0.009 A 
ATOM     14  C   UNL     1     -15.526   2.366  -3.895  0.00  0.00    +0.047 A 
ATOM     15  C   UNL     1     -14.190   2.720  -3.649  0.00  0.00    +0.020 A 
ATOM     16  C   UNL     1     -13.245   1.746  -3.349  0.00  0.00    +0.003 A 
ATOM     17  C   UNL     1     -13.630   0.413  -3.312  0.00  0.00    +0.020 A 
ATOM     18 CL   UNL     1     -16.575   3.656  -4.362  0.00  0.00    -0.083 Cl
ATOM     19  C   UNL     1     -14.967   0.055  -3.540  0.00  0.00    +0.047 A 
ATOM     20 CL   UNL     1     -15.310  -1.643  -3.525  0.00  0.00    -0.083 Cl
ENDBRANCH  12  13
ENDBRANCH   4  12
TORSDOF 5
ENDMDL
MODEL 8
REMARK VINA RESULT:      -5.4      2.614      5.183
REMARK  Name = min_compound957.pdb
REMARK  7 active torsions:
REMARK  status: ('A' for Active; 'I' for Inactive)
REMARK    1  A    between atoms: _2  and  _14
REMARK    2  A    between atoms: _4  and  _18
REMARK    3  A    between atoms: _5  and  _17
REMARK    4  A    between atoms: _6  and  _18
REMARK    5  A    between atoms: _14  and  _15
REMARK    6  A    between atoms: _14  and  _16
REMARK    7  A    between atoms: _17  and  _19
REMARK                            x       y       z     vdW  Elec       q    Type
REMARK                         _______ _______ _______ _____ _____    ______ ____
ROOT
ATOM      1  N   UNL     1     -10.302   2.430 -16.207  0.00  0.00    -0.240 NA
ATOM      2  C   UNL     1     -10.529   3.757 -16.414  0.00  0.00    +0.136 A 
ATOM      3  C   UNL     1     -11.433   3.954 -17.437  0.00  0.00    +0.064 A 
ATOM      4  N   UNL     1     -11.870   2.684 -17.763  0.00  0.00    -0.325 N 
ATOM      5  C   UNL     1     -11.052   1.791 -17.082  0.00  0.00    +0.113 A 
ENDROOT
BRANCH   5   6
ATOM      6  C   UNL     1     -10.997   0.306 -17.333  0.00  0.00    +0.049 C 
ATOM      7  C   UNL     1     -12.021  -0.429 -16.474  0.00  0.00    +0.015 C 
ATOM      8  C   UNL     1      -9.589  -0.235 -17.064  0.00  0.00    +0.015 C 
ENDBRANCH   5   6
BRANCH   3   9
ATOM      9  C   UNL     1     -11.836   5.223 -18.077  0.00  0.00    +0.210 C 
BRANCH   9  10
ATOM     10  O   UNL     1     -12.802   5.810 -17.221  0.00  0.00    -0.389 OA
ATOM     11  H   UNL     1     -13.658   5.740 -17.682  0.00  0.00    +0.210 HD
ENDBRANCH   9  10
ENDBRANCH   3   9
BRANCH   4  12
ATOM     12  C   UNL     1     -12.895   2.290 -18.736  0.00  0.00    +0.161 C 
BRANCH  12  13
ATOM     13  C   UNL     1     -14.235   2.993 -18.648  0.00  0.00    +0.009 A 
ATOM     14  C   UNL     1     -14.999   3.038 -17.464  0.00  0.00    +0.047 A 
ATOM     15  C   UNL     1     -16.229   3.712 -17.416  0.00  0.00    +0.020 A 
ATOM     16  C   UNL     1     -16.750   4.312 -18.556  0.00  0.00    +0.003 A 
ATOM     17  C   UNL     1     -16.050   4.224 -19.752  0.00  0.00    +0.020 A 
ATOM     18 CL   UNL     1     -14.516   2.243 -16.008  0.00  0.00    -0.083 Cl
ATOM     19  C   UNL     1     -14.813   3.567 -19.802  0.00  0.00    +0.047 A 
ATOM     20 CL   UNL     1     -14.066   3.473 -21.362  0.00  0.00    -0.083 Cl
ENDBRANCH  12  13
ENDBRANCH   4  12
TORSDOF 5
ENDMDL
MODEL 9
REMARK VINA RESULT:      -5.4      8.885     11.318
REMARK  Name = min_compound957.pdb
REMARK  7 active torsions:
REMARK  status: ('A' for Active; 'I' for Inactive)
REMARK    1  A    between atoms: _2  and  _14
REMARK    2  A    between atoms: _4  and  _18
REMARK    3  A    between atoms: _5  and  _17
REMARK    4  A    between atoms: _6  and  _18
REMARK    5  A    between atoms: _14  and  _15
REMARK    6  A    between atoms: _14  and  _16
REMARK    7  A    between atoms: _17  and  _19
REMARK                            x       y       z     vdW  Elec       q    Type
REMARK                         _______ _______ _______ _____ _____    ______ ____
ROOT
ATOM      1  N   UNL     1     -17.355   5.105  -7.930  0.00  0.00    -0.240 NA
ATOM      2  C   UNL     1     -17.225   5.557  -6.653  0.00  0.00    +0.136 A 
ATOM      3  C   UNL     1     -17.322   4.522  -5.746  0.00  0.00    +0.064 A 
ATOM      4  N   UNL     1     -17.375   3.381  -6.524  0.00  0.00    -0.325 N 
ATOM      5  C   UNL     1     -17.530   3.802  -7.840  0.00  0.00    +0.113 A 
ENDROOT
BRANCH   5   6
ATOM      6  C   UNL     1     -17.888   2.904  -8.997  0.00  0.00    +0.049 C 
ATOM      7  C   UNL     1     -16.833   2.987 -10.096  0.00  0.00    +0.015 C 
ATOM      8  C   UNL     1     -19.268   3.267  -9.554  0.00  0.00    +0.015 C 
ENDBRANCH   5   6
BRANCH   3   9
ATOM      9  C   UNL     1     -17.387   4.594  -4.271  0.00  0.00    +0.210 C 
BRANCH   9  10
ATOM     10  O   UNL     1     -16.065   4.849  -3.827  0.00  0.00    -0.389 OA
ATOM     11  H   UNL     1     -15.471   4.441  -4.482  0.00  0.00    +0.210 HD
ENDBRANCH   9  10
ENDBRANCH   3   9
BRANCH   4  12
ATOM     12  C   UNL     1     -17.409   1.980  -6.094  0.00  0.00    +0.161 C 
BRANCH  12  13
ATOM     13  C   UNL     1     -16.194   1.456  -5.354  0.00  0.00    +0.009 A 
ATOM     14  C   UNL     1     -14.952   1.234  -5.983  0.00  0.00    +0.047 A 
ATOM     15  C   UNL     1     -13.844   0.764  -5.262  0.00  0.00    +0.020 A 
ATOM     16  C   UNL     1     -13.959   0.456  -3.912  0.00  0.00    +0.003 A 
ATOM     17  C   UNL     1     -15.189   0.600  -3.284  0.00  0.00    +0.020 A 
ATOM     18 CL   UNL     1     -14.703   1.477  -7.676  0.00  0.00    -0.083 Cl
ATOM     19  C   UNL     1     -16.295   1.086  -3.995  0.00  0.00    +0.047 A 
ATOM     20 CL   UNL     1     -17.786   1.166  -3.117  0.00  0.00    -0.083 Cl
ENDBRANCH  12  13
ENDBRANCH   4  12
TORSDOF 5
ENDMDL
