MODEL 1
REMARK VINA RESULT:      -7.0      0.000      0.000
REMARK  Name = min_compound923.pdb
REMARK  3 active torsions:
REMARK  status: ('A' for Active; 'I' for Inactive)
REMARK    1  A    between atoms: _5  and  _7
REMARK    2  A    between atoms: _6  and  _17
REMARK    3  A    between atoms: _9  and  _18
REMARK                            x       y       z     vdW  Elec       q    Type
REMARK                         _______ _______ _______ _____ _____    ______ ____
ROOT
ATOM      1  C   UNL     1     -12.234   2.255 -17.616  0.00  0.00    +0.250 C 
ATOM      2  N   UNL     1     -12.140   3.371 -16.807  0.00  0.00    -0.280 N 
ATOM      3  H   UNL     1     -11.710   3.176 -15.902  0.00  0.00    +0.155 HD
ATOM      4  O   UNL     1     -13.015   2.098 -18.547  0.00  0.00    -0.270 OA
ENDROOT
BRANCH   2   5
ATOM      5  C   UNL     1     -12.883   4.567 -16.920  0.00  0.00    +0.052 A 
ATOM      6  C   UNL     1     -12.230   5.608 -17.602  0.00  0.00    +0.026 A 
ATOM      7  C   UNL     1     -12.829   6.862 -17.746  0.00  0.00    +0.022 A 
ATOM      8  C   UNL     1     -14.100   7.079 -17.228  0.00  0.00    +0.042 A 
ATOM      9 CL   UNL     1     -14.839   8.623 -17.403  0.00  0.00    -0.083 Cl
ATOM     10  C   UNL     1     -14.788   6.047 -16.597  0.00  0.00    +0.041 A 
ATOM     11  C   UNL     1     -14.194   4.785 -16.457  0.00  0.00    +0.064 A 
ATOM     12 CL   UNL     1     -15.238   3.525 -15.896  0.00  0.00    -0.082 Cl
ENDBRANCH   2   5
BRANCH   1  17
ATOM     13  C   UNL     1      -9.068   0.231 -17.282  0.00  0.00    +0.001 A 
ATOM     14  C   UNL     1      -9.510  -0.921 -16.638  0.00  0.00    +0.002 A 
ATOM     15  C   UNL     1     -10.856  -1.057 -16.293  0.00  0.00    +0.023 A 
ATOM     16  C   UNL     1     -11.774  -0.029 -16.551  0.00  0.00    +0.037 A 
ATOM     17  C   UNL     1     -11.328   1.123 -17.237  0.00  0.00    +0.058 A 
ATOM     18  C   UNL     1      -9.975   1.245 -17.589  0.00  0.00    +0.015 A 
BRANCH  16  19
ATOM     19  N   UNL     1     -13.157  -0.283 -16.328  0.00  0.00    -0.357 N 
ATOM     20  H   UNL     1     -13.258  -1.235 -15.963  0.00  0.00    +0.142 HD
ATOM     21  H   UNL     1     -13.538   0.360 -15.633  0.00  0.00    +0.142 HD
ENDBRANCH  16  19
ENDBRANCH   1  17
TORSDOF 3
ENDMDL
MODEL 2
REMARK VINA RESULT:      -6.7      2.162      2.686
REMARK  Name = min_compound923.pdb
REMARK  3 active torsions:
REMARK  status: ('A' for Active; 'I' for Inactive)
REMARK    1  A    between atoms: _5  and  _7
REMARK    2  A    between atoms: _6  and  _17
REMARK    3  A    between atoms: _9  and  _18
REMARK                            x       y       z     vdW  Elec       q    Type
REMARK                         _______ _______ _______ _____ _____    ______ ____
ROOT
ATOM      1  C   UNL     1     -11.982   2.932 -16.104  0.00  0.00    +0.250 C 
ATOM      2  N   UNL     1     -13.321   2.870 -15.767  0.00  0.00    -0.280 N 
ATOM      3  H   UNL     1     -13.768   2.001 -16.059  0.00  0.00    +0.155 HD
ATOM      4  O   UNL     1     -11.313   3.951 -16.232  0.00  0.00    -0.270 OA
ENDROOT
BRANCH   2   5
ATOM      5  C   UNL     1     -14.168   3.955 -15.454  0.00  0.00    +0.052 A 
ATOM      6  C   UNL     1     -14.506   4.071 -14.095  0.00  0.00    +0.026 A 
ATOM      7  C   UNL     1     -15.376   5.070 -13.651  0.00  0.00    +0.022 A 
ATOM      8  C   UNL     1     -15.899   5.980 -14.563  0.00  0.00    +0.042 A 
ATOM      9 CL   UNL     1     -16.971   7.210 -14.018  0.00  0.00    -0.083 Cl
ATOM     10  C   UNL     1     -15.536   5.918 -15.904  0.00  0.00    +0.041 A 
ATOM     11  C   UNL     1     -14.657   4.922 -16.353  0.00  0.00    +0.064 A 
ATOM     12 CL   UNL     1     -14.081   5.107 -17.973  0.00  0.00    -0.082 Cl
ENDBRANCH   2   5
BRANCH   1  17
ATOM     13  C   UNL     1      -9.812  -0.121 -15.660  0.00  0.00    +0.001 A 
ATOM     14  C   UNL     1     -10.040  -0.831 -16.836  0.00  0.00    +0.002 A 
ATOM     15  C   UNL     1     -10.917  -0.326 -17.798  0.00  0.00    +0.023 A 
ATOM     16  C   UNL     1     -11.608   0.876 -17.585  0.00  0.00    +0.037 A 
ATOM     17  C   UNL     1     -11.346   1.610 -16.406  0.00  0.00    +0.058 A 
ATOM     18  C   UNL     1     -10.455   1.098 -15.450  0.00  0.00    +0.015 A 
BRANCH  16  19
ATOM     19  N   UNL     1     -12.361   1.425 -18.661  0.00  0.00    -0.357 N 
ATOM     20  H   UNL     1     -12.080   2.402 -18.789  0.00  0.00    +0.142 HD
ATOM     21  H   UNL     1     -12.169   0.927 -19.531  0.00  0.00    +0.142 HD
ENDBRANCH  16  19
ENDBRANCH   1  17
TORSDOF 3
ENDMDL
MODEL 3
REMARK VINA RESULT:      -6.6      2.681      6.674
REMARK  Name = min_compound923.pdb
REMARK  3 active torsions:
REMARK  status: ('A' for Active; 'I' for Inactive)
REMARK    1  A    between atoms: _5  and  _7
REMARK    2  A    between atoms: _6  and  _17
REMARK    3  A    between atoms: _9  and  _18
REMARK                            x       y       z     vdW  Elec       q    Type
REMARK                         _______ _______ _______ _____ _____    ______ ____
ROOT
ATOM      1  C   UNL     1     -13.860   4.196 -16.455  0.00  0.00    +0.250 C 
ATOM      2  N   UNL     1     -12.515   4.003 -16.705  0.00  0.00    -0.280 N 
ATOM      3  H   UNL     1     -12.082   4.785 -17.197  0.00  0.00    +0.155 HD
ATOM      4  O   UNL     1     -14.692   3.321 -16.247  0.00  0.00    -0.270 OA
ENDROOT
BRANCH   2   5
ATOM      5  C   UNL     1     -11.822   2.774 -16.719  0.00  0.00    +0.052 A 
ATOM      6  C   UNL     1     -11.107   2.481 -15.545  0.00  0.00    +0.026 A 
ATOM      7  C   UNL     1     -10.338   1.321 -15.439  0.00  0.00    +0.022 A 
ATOM      8  C   UNL     1     -10.294   0.426 -16.502  0.00  0.00    +0.042 A 
ATOM      9 CL   UNL     1      -9.347  -1.004 -16.375  0.00  0.00    -0.083 Cl
ATOM     10  C   UNL     1     -11.037   0.668 -17.654  0.00  0.00    +0.041 A 
ATOM     11  C   UNL     1     -11.817   1.828 -17.761  0.00  0.00    +0.064 A 
ATOM     12 CL   UNL     1     -12.888   1.886 -19.118  0.00  0.00    -0.082 Cl
ENDBRANCH   2   5
BRANCH   1  17
ATOM     13  C   UNL     1     -14.104   7.764 -17.657  0.00  0.00    +0.001 A 
ATOM     14  C   UNL     1     -15.033   8.317 -16.780  0.00  0.00    +0.002 A 
ATOM     15  C   UNL     1     -15.604   7.531 -15.778  0.00  0.00    +0.023 A 
ATOM     16  C   UNL     1     -15.286   6.170 -15.660  0.00  0.00    +0.037 A 
ATOM     17  C   UNL     1     -14.317   5.621 -16.530  0.00  0.00    +0.058 A 
ATOM     18  C   UNL     1     -13.741   6.423 -17.527  0.00  0.00    +0.015 A 
BRANCH  16  19
ATOM     19  N   UNL     1     -15.770   5.456 -14.528  0.00  0.00    -0.357 N 
ATOM     20  H   UNL     1     -16.531   5.997 -14.104  0.00  0.00    +0.142 HD
ATOM     21  H   UNL     1     -16.147   4.549 -14.803  0.00  0.00    +0.142 HD
ENDBRANCH  16  19
ENDBRANCH   1  17
TORSDOF 3
ENDMDL
MODEL 4
REMARK VINA RESULT:      -6.6     13.481     14.635
REMARK  Name = min_compound923.pdb
REMARK  3 active torsions:
REMARK  status: ('A' for Active; 'I' for Inactive)
REMARK    1  A    between atoms: _5  and  _7
REMARK    2  A    between atoms: _6  and  _17
REMARK    3  A    between atoms: _9  and  _18
REMARK                            x       y       z     vdW  Elec       q    Type
REMARK                         _______ _______ _______ _____ _____    ______ ____
ROOT
ATOM      1  C   UNL     1     -15.190  -2.449  -3.037  0.00  0.00    +0.250 C 
ATOM      2  N   UNL     1     -14.481  -2.202  -4.196  0.00  0.00    -0.280 N 
ATOM      3  H   UNL     1     -13.593  -2.702  -4.238  0.00  0.00    +0.155 HD
ATOM      4  O   UNL     1     -16.054  -1.731  -2.547  0.00  0.00    -0.270 OA
ENDROOT
BRANCH   2   5
ATOM      5  C   UNL     1     -14.642  -1.107  -5.072  0.00  0.00    +0.052 A 
ATOM      6  C   UNL     1     -15.367  -1.387  -6.244  0.00  0.00    +0.026 A 
ATOM      7  C   UNL     1     -15.561  -0.409  -7.222  0.00  0.00    +0.022 A 
ATOM      8  C   UNL     1     -15.051   0.870  -7.026  0.00  0.00    +0.042 A 
ATOM      9 CL   UNL     1     -15.289   2.075  -8.230  0.00  0.00    -0.083 Cl
ATOM     10  C   UNL     1     -14.378   1.185  -5.850  0.00  0.00    +0.041 A 
ATOM     11  C   UNL     1     -14.187   0.208  -4.862  0.00  0.00    +0.064 A 
ATOM     12 CL   UNL     1     -13.574   0.784  -3.350  0.00  0.00    -0.082 Cl
ENDBRANCH   2   5
BRANCH   1  17
ATOM     13  C   UNL     1     -12.997  -4.855  -1.130  0.00  0.00    +0.001 A 
ATOM     14  C   UNL     1     -13.841  -5.944  -0.932  0.00  0.00    +0.002 A 
ATOM     15  C   UNL     1     -15.151  -5.911  -1.413  0.00  0.00    +0.023 A 
ATOM     16  C   UNL     1     -15.650  -4.775  -2.067  0.00  0.00    +0.037 A 
ATOM     17  C   UNL     1     -14.780  -3.686  -2.298  0.00  0.00    +0.058 A 
ATOM     18  C   UNL     1     -13.461  -3.734  -1.819  0.00  0.00    +0.015 A 
BRANCH  16  19
ATOM     19  N   UNL     1     -16.933  -4.854  -2.678  0.00  0.00    -0.357 N 
ATOM     20  H   UNL     1     -16.847  -4.560  -3.655  0.00  0.00    +0.142 HD
ATOM     21  H   UNL     1     -17.282  -5.813  -2.670  0.00  0.00    +0.142 HD
ENDBRANCH  16  19
ENDBRANCH   1  17
TORSDOF 3
ENDMDL
MODEL 5
REMARK VINA RESULT:      -6.5     14.998     16.907
REMARK  Name = min_compound923.pdb
REMARK  3 active torsions:
REMARK  status: ('A' for Active; 'I' for Inactive)
REMARK    1  A    between atoms: _5  and  _7
REMARK    2  A    between atoms: _6  and  _17
REMARK    3  A    between atoms: _9  and  _18
REMARK                            x       y       z     vdW  Elec       q    Type
REMARK                         _______ _______ _______ _____ _____    ______ ____
ROOT
ATOM      1  C   UNL     1     -14.999  -1.907  -3.021  0.00  0.00    +0.250 C 
ATOM      2  N   UNL     1     -14.041  -2.420  -2.168  0.00  0.00    -0.280 N 
ATOM      3  H   UNL     1     -13.093  -2.125  -2.405  0.00  0.00    +0.155 HD
ATOM      4  O   UNL     1     -16.116  -2.371  -3.221  0.00  0.00    -0.270 OA
ENDROOT
BRANCH   2   5
ATOM      5  C   UNL     1     -14.171  -3.543  -1.323  0.00  0.00    +0.052 A 
ATOM      6  C   UNL     1     -13.287  -4.600  -1.600  0.00  0.00    +0.026 A 
ATOM      7  C   UNL     1     -13.338  -5.791  -0.872  0.00  0.00    +0.022 A 
ATOM      8  C   UNL     1     -14.261  -5.928   0.158  0.00  0.00    +0.042 A 
ATOM      9 CL   UNL     1     -14.326  -7.395   1.055  0.00  0.00    -0.083 Cl
ATOM     10  C   UNL     1     -15.109  -4.875   0.486  0.00  0.00    +0.041 A 
ATOM     11  C   UNL     1     -15.056  -3.674  -0.236  0.00  0.00    +0.064 A 
ATOM     12 CL   UNL     1     -15.966  -2.361   0.427  0.00  0.00    -0.082 Cl
ENDBRANCH   2   5
BRANCH   1  17
ATOM     13  C   UNL     1     -13.921   1.631  -3.765  0.00  0.00    +0.001 A 
ATOM     14  C   UNL     1     -13.781   1.622  -5.149  0.00  0.00    +0.002 A 
ATOM     15  C   UNL     1     -14.031   0.453  -5.870  0.00  0.00    +0.023 A 
ATOM     16  C   UNL     1     -14.388  -0.735  -5.216  0.00  0.00    +0.037 A 
ATOM     17  C   UNL     1     -14.563  -0.712  -3.814  0.00  0.00    +0.058 A 
ATOM     18  C   UNL     1     -14.319   0.471  -3.100  0.00  0.00    +0.015 A 
BRANCH  16  19
ATOM     19  N   UNL     1     -14.787  -1.850  -6.005  0.00  0.00    -0.357 N 
ATOM     20  H   UNL     1     -14.463  -2.707  -5.546  0.00  0.00    +0.142 HD
ATOM     21  H   UNL     1     -15.804  -1.900  -6.077  0.00  0.00    +0.142 HD
ENDBRANCH  16  19
ENDBRANCH   1  17
TORSDOF 3
ENDMDL
MODEL 6
REMARK VINA RESULT:      -6.5      2.739      6.989
REMARK  Name = min_compound923.pdb
REMARK  3 active torsions:
REMARK  status: ('A' for Active; 'I' for Inactive)
REMARK    1  A    between atoms: _5  and  _7
REMARK    2  A    between atoms: _6  and  _17
REMARK    3  A    between atoms: _9  and  _18
REMARK                            x       y       z     vdW  Elec       q    Type
REMARK                         _______ _______ _______ _____ _____    ______ ____
ROOT
ATOM      1  C   UNL     1     -13.583   4.799 -17.044  0.00  0.00    +0.250 C 
ATOM      2  N   UNL     1     -13.225   3.953 -16.013  0.00  0.00    -0.280 N 
ATOM      3  H   UNL     1     -13.346   4.370 -15.090  0.00  0.00    +0.155 HD
ATOM      4  O   UNL     1     -13.200   4.730 -18.206  0.00  0.00    -0.270 OA
ENDROOT
BRANCH   2   5
ATOM      5  C   UNL     1     -12.392   2.816 -16.098  0.00  0.00    +0.052 A 
ATOM      6  C   UNL     1     -13.034   1.640 -16.523  0.00  0.00    +0.026 A 
ATOM      7  C   UNL     1     -12.341   0.430 -16.606  0.00  0.00    +0.022 A 
ATOM      8  C   UNL     1     -10.989   0.390 -16.287  0.00  0.00    +0.042 A 
ATOM      9 CL   UNL     1     -10.134  -1.099 -16.388  0.00  0.00    -0.083 Cl
ATOM     10  C   UNL     1     -10.320   1.552 -15.916  0.00  0.00    +0.041 A 
ATOM     11  C   UNL     1     -11.009   2.770 -15.839  0.00  0.00    +0.064 A 
ATOM     12 CL   UNL     1     -10.023   4.176 -15.626  0.00  0.00    -0.082 Cl
ENDBRANCH   2   5
BRANCH   1  17
ATOM     13  C   UNL     1     -16.434   6.646 -15.402  0.00  0.00    +0.001 A 
ATOM     14  C   UNL     1     -16.241   7.953 -15.839  0.00  0.00    +0.002 A 
ATOM     15  C   UNL     1     -15.168   8.260 -16.677  0.00  0.00    +0.023 A 
ATOM     16  C   UNL     1     -14.248   7.273 -17.061  0.00  0.00    +0.037 A 
ATOM     17  C   UNL     1     -14.468   5.941 -16.644  0.00  0.00    +0.058 A 
ATOM     18  C   UNL     1     -15.556   5.641 -15.810  0.00  0.00    +0.015 A 
BRANCH  16  19
ATOM     19  N   UNL     1     -13.271   7.602 -18.042  0.00  0.00    -0.357 N 
ATOM     20  H   UNL     1     -12.641   6.802 -18.155  0.00  0.00    +0.142 HD
ATOM     21  H   UNL     1     -13.709   7.785 -18.945  0.00  0.00    +0.142 HD
ENDBRANCH  16  19
ENDBRANCH   1  17
TORSDOF 3
ENDMDL
MODEL 7
REMARK VINA RESULT:      -6.5      1.964      2.422
REMARK  Name = min_compound923.pdb
REMARK  3 active torsions:
REMARK  status: ('A' for Active; 'I' for Inactive)
REMARK    1  A    between atoms: _5  and  _7
REMARK    2  A    between atoms: _6  and  _17
REMARK    3  A    between atoms: _9  and  _18
REMARK                            x       y       z     vdW  Elec       q    Type
REMARK                         _______ _______ _______ _____ _____    ______ ____
ROOT
ATOM      1  C   UNL     1     -13.117   3.391 -16.089  0.00  0.00    +0.250 C 
ATOM      2  N   UNL     1     -13.314   4.045 -17.289  0.00  0.00    -0.280 N 
ATOM      3  H   UNL     1     -12.614   3.812 -17.993  0.00  0.00    +0.155 HD
ATOM      4  O   UNL     1     -13.534   3.744 -14.992  0.00  0.00    -0.270 OA
ENDROOT
BRANCH   2   5
ATOM      5  C   UNL     1     -14.073   5.217 -17.502  0.00  0.00    +0.052 A 
ATOM      6  C   UNL     1     -13.344   6.417 -17.433  0.00  0.00    +0.026 A 
ATOM      7  C   UNL     1     -13.976   7.653 -17.577  0.00  0.00    +0.022 A 
ATOM      8  C   UNL     1     -15.345   7.701 -17.815  0.00  0.00    +0.042 A 
ATOM      9 CL   UNL     1     -16.127   9.223 -17.992  0.00  0.00    -0.083 Cl
ATOM     10  C   UNL     1     -16.078   6.525 -17.942  0.00  0.00    +0.041 A 
ATOM     11  C   UNL     1     -15.445   5.281 -17.807  0.00  0.00    +0.064 A 
ATOM     12 CL   UNL     1     -16.399   3.905 -18.242  0.00  0.00    -0.082 Cl
ENDBRANCH   2   5
BRANCH   1  17
ATOM     13  C   UNL     1     -12.110  -0.203 -16.642  0.00  0.00    +0.001 A 
ATOM     14  C   UNL     1     -10.755  -0.191 -16.327  0.00  0.00    +0.002 A 
ATOM     15  C   UNL     1     -10.138   0.997 -15.932  0.00  0.00    +0.023 A 
ATOM     16  C   UNL     1     -10.858   2.201 -15.882  0.00  0.00    +0.037 A 
ATOM     17  C   UNL     1     -12.241   2.177 -16.168  0.00  0.00    +0.058 A 
ATOM     18  C   UNL     1     -12.853   0.974 -16.554  0.00  0.00    +0.015 A 
BRANCH  16  19
ATOM     19  N   UNL     1     -10.226   3.345 -15.320  0.00  0.00    -0.357 N 
ATOM     20  H   UNL     1      -9.880   3.100 -14.387  0.00  0.00    +0.142 HD
ATOM     21  H   UNL     1      -9.425   3.634 -15.884  0.00  0.00    +0.142 HD
ENDBRANCH  16  19
ENDBRANCH   1  17
TORSDOF 3
ENDMDL
MODEL 8
REMARK VINA RESULT:      -6.4      3.359      3.800
REMARK  Name = min_compound923.pdb
REMARK  3 active torsions:
REMARK  status: ('A' for Active; 'I' for Inactive)
REMARK    1  A    between atoms: _5  and  _7
REMARK    2  A    between atoms: _6  and  _17
REMARK    3  A    between atoms: _9  and  _18
REMARK                            x       y       z     vdW  Elec       q    Type
REMARK                         _______ _______ _______ _____ _____    ______ ____
ROOT
ATOM      1  C   UNL     1     -12.710   1.557 -18.067  0.00  0.00    +0.250 C 
ATOM      2  N   UNL     1     -12.594   1.672 -19.439  0.00  0.00    -0.280 N 
ATOM      3  H   UNL     1     -11.664   1.433 -19.785  0.00  0.00    +0.155 HD
ATOM      4  O   UNL     1     -13.536   2.122 -17.359  0.00  0.00    -0.270 OA
ENDROOT
BRANCH   2   5
ATOM      5  C   UNL     1     -13.429   2.414 -20.302  0.00  0.00    +0.052 A 
ATOM      6  C   UNL     1     -14.242   1.642 -21.150  0.00  0.00    +0.026 A 
ATOM      7  C   UNL     1     -15.082   2.245 -22.088  0.00  0.00    +0.022 A 
ATOM      8  C   UNL     1     -15.134   3.632 -22.173  0.00  0.00    +0.042 A 
ATOM      9 CL   UNL     1     -16.167   4.377 -23.329  0.00  0.00    -0.083 Cl
ATOM     10  C   UNL     1     -14.379   4.417 -21.307  0.00  0.00    +0.041 A 
ATOM     11  C   UNL     1     -13.540   3.816 -20.357  0.00  0.00    +0.064 A 
ATOM     12 CL   UNL     1     -12.861   4.882 -19.177  0.00  0.00    -0.082 Cl
ENDBRANCH   2   5
BRANCH   1  17
ATOM     13  C   UNL     1      -9.286   0.230 -17.201  0.00  0.00    +0.001 A 
ATOM     14  C   UNL     1      -9.575  -0.801 -16.312  0.00  0.00    +0.002 A 
ATOM     15  C   UNL     1     -10.900  -1.081 -15.972  0.00  0.00    +0.023 A 
ATOM     16  C   UNL     1     -11.954  -0.310 -16.485  0.00  0.00    +0.037 A 
ATOM     17  C   UNL     1     -11.659   0.713 -17.413  0.00  0.00    +0.058 A 
ATOM     18  C   UNL     1     -10.324   0.979 -17.756  0.00  0.00    +0.015 A 
BRANCH  16  19
ATOM     19  N   UNL     1     -13.289  -0.737 -16.236  0.00  0.00    -0.357 N 
ATOM     20  H   UNL     1     -13.315  -1.211 -15.327  0.00  0.00    +0.142 HD
ATOM     21  H   UNL     1     -13.924   0.060 -16.191  0.00  0.00    +0.142 HD
ENDBRANCH  16  19
ENDBRANCH   1  17
TORSDOF 3
ENDMDL
MODEL 9
REMARK VINA RESULT:      -6.4      3.358      3.796
REMARK  Name = min_compound923.pdb
REMARK  3 active torsions:
REMARK  status: ('A' for Active; 'I' for Inactive)
REMARK    1  A    between atoms: _5  and  _7
REMARK    2  A    between atoms: _6  and  _17
REMARK    3  A    between atoms: _9  and  _18
REMARK                            x       y       z     vdW  Elec       q    Type
REMARK                         _______ _______ _______ _____ _____    ______ ____
ROOT
ATOM      1  C   UNL     1     -12.089   2.246 -17.952  0.00  0.00    +0.250 C 
ATOM      2  N   UNL     1     -13.010   1.712 -18.832  0.00  0.00    -0.280 N 
ATOM      3  H   UNL     1     -12.780   0.762 -19.127  0.00  0.00    +0.155 HD
ATOM      4  O   UNL     1     -11.892   3.437 -17.742  0.00  0.00    -0.270 OA
ENDROOT
BRANCH   2   5
ATOM      5  C   UNL     1     -13.940   2.421 -19.622  0.00  0.00    +0.052 A 
ATOM      6  C   UNL     1     -14.782   3.292 -18.909  0.00  0.00    +0.026 A 
ATOM      7  C   UNL     1     -15.781   4.021 -19.559  0.00  0.00    +0.022 A 
ATOM      8  C   UNL     1     -15.932   3.903 -20.936  0.00  0.00    +0.042 A 
ATOM      9 CL   UNL     1     -17.162   4.799 -21.737  0.00  0.00    -0.083 Cl
ATOM     10  C   UNL     1     -15.075   3.089 -21.669  0.00  0.00    +0.041 A 
ATOM     11  C   UNL     1     -14.066   2.362 -21.022  0.00  0.00    +0.064 A 
ATOM     12 CL   UNL     1     -12.910   1.600 -22.060  0.00  0.00    -0.082 Cl
ENDBRANCH   2   5
BRANCH   1  17
ATOM     13  C   UNL     1     -10.152  -0.942 -17.385  0.00  0.00    +0.001 A 
ATOM     14  C   UNL     1      -9.633  -0.759 -16.107  0.00  0.00    +0.002 A 
ATOM     15  C   UNL     1      -9.902   0.417 -15.404  0.00  0.00    +0.023 A 
ATOM     16  C   UNL     1     -10.661   1.445 -15.982  0.00  0.00    +0.037 A 
ATOM     17  C   UNL     1     -11.215   1.241 -17.265  0.00  0.00    +0.058 A 
ATOM     18  C   UNL     1     -10.948   0.050 -17.959  0.00  0.00    +0.015 A 
BRANCH  16  19
ATOM     19  N   UNL     1     -11.039   2.548 -15.166  0.00  0.00    -0.357 N 
ATOM     20  H   UNL     1     -10.597   3.394 -15.538  0.00  0.00    +0.142 HD
ATOM     21  H   UNL     1     -12.050   2.689 -15.189  0.00  0.00    +0.142 HD
ENDBRANCH  16  19
ENDBRANCH   1  17
TORSDOF 3
ENDMDL
