MODEL 1
REMARK VINA RESULT:      -5.5      0.000      0.000
REMARK  Name = min_compound9.pdb
REMARK  0 active torsions:
REMARK  status: ('A' for Active; 'I' for Inactive)
REMARK                            x       y       z     vdW  Elec       q    Type
REMARK                         _______ _______ _______ _____ _____    ______ ____
ROOT
ATOM      1  C   UNL     1     -11.382  -1.078 -16.225  0.00  0.00    +0.023 A 
ATOM      2  C   UNL     1     -10.192  -0.739 -15.600  0.00  0.00    +0.113 A 
ATOM      3  N   UNL     1      -9.742   0.529 -15.475  0.00  0.00    -0.237 NA
ATOM      4  C   UNL     1     -10.519   1.498 -16.000  0.00  0.00    +0.167 A 
ATOM      5  N   UNL     1     -10.053   2.794 -15.865  0.00  0.00    -0.265 N 
ATOM      6  H   UNL     1      -9.178   2.933 -15.384  0.00  0.00    +0.156 HD
ATOM      7  C   UNL     1     -10.731   3.867 -16.355  0.00  0.00    +0.256 C 
ATOM      8  O   UNL     1     -10.307   5.013 -16.225  0.00  0.00    -0.272 OA
ATOM      9  C   UNL     1     -12.040   3.550 -17.084  0.00  0.00    +0.325 C 
ATOM     10  O   UNL     1     -12.534   2.223 -17.179  0.00  0.00    -0.479 OA
ATOM     11  C   UNL     1     -11.728   1.261 -16.646  0.00  0.00    +0.161 A 
ATOM     12  C   UNL     1     -12.163  -0.056 -16.756  0.00  0.00    +0.051 A 
ENDROOT
TORSDOF 0
ENDMDL
MODEL 2
REMARK VINA RESULT:      -5.3      1.973      2.774
REMARK  Name = min_compound9.pdb
REMARK  0 active torsions:
REMARK  status: ('A' for Active; 'I' for Inactive)
REMARK                            x       y       z     vdW  Elec       q    Type
REMARK                         _______ _______ _______ _____ _____    ______ ____
ROOT
ATOM      1  C   UNL     1      -9.919   0.122 -15.525  0.00  0.00    +0.023 A 
ATOM      2  C   UNL     1     -10.039  -0.674 -16.654  0.00  0.00    +0.113 A 
ATOM      3  N   UNL     1     -10.807  -0.356 -17.720  0.00  0.00    -0.237 NA
ATOM      4  C   UNL     1     -11.482   0.810 -17.650  0.00  0.00    +0.167 A 
ATOM      5  N   UNL     1     -12.262   1.129 -18.748  0.00  0.00    -0.265 N 
ATOM      6  H   UNL     1     -12.273   0.485 -19.523  0.00  0.00    +0.156 HD
ATOM      7  C   UNL     1     -13.003   2.269 -18.808  0.00  0.00    +0.256 C 
ATOM      8  O   UNL     1     -13.689   2.542 -19.791  0.00  0.00    -0.272 OA
ATOM      9  C   UNL     1     -12.933   3.173 -17.574  0.00  0.00    +0.325 C 
ATOM     10  O   UNL     1     -12.095   2.861 -16.472  0.00  0.00    -0.479 OA
ATOM     11  C   UNL     1     -11.428   1.676 -16.564  0.00  0.00    +0.161 A 
ATOM     12  C   UNL     1     -10.627   1.319 -15.483  0.00  0.00    +0.051 A 
ENDROOT
TORSDOF 0
ENDMDL
MODEL 3
REMARK VINA RESULT:      -5.2      2.407      4.151
REMARK  Name = min_compound9.pdb
REMARK  0 active torsions:
REMARK  status: ('A' for Active; 'I' for Inactive)
REMARK                            x       y       z     vdW  Elec       q    Type
REMARK                         _______ _______ _______ _____ _____    ______ ____
ROOT
ATOM      1  C   UNL     1     -13.289   3.664 -16.360  0.00  0.00    +0.023 A 
ATOM      2  C   UNL     1     -13.636   3.116 -17.585  0.00  0.00    +0.113 A 
ATOM      3  N   UNL     1     -13.035   2.029 -18.120  0.00  0.00    -0.237 NA
ATOM      4  C   UNL     1     -12.043   1.472 -17.396  0.00  0.00    +0.167 A 
ATOM      5  N   UNL     1     -11.435   0.359 -17.950  0.00  0.00    -0.265 N 
ATOM      6  H   UNL     1     -11.771   0.034 -18.844  0.00  0.00    +0.156 HD
ATOM      7  C   UNL     1     -10.416  -0.298 -17.333  0.00  0.00    +0.256 C 
ATOM      8  O   UNL     1      -9.888  -1.287 -17.835  0.00  0.00    -0.272 OA
ATOM      9  C   UNL     1      -9.969   0.284 -15.989  0.00  0.00    +0.325 C 
ATOM     10  O   UNL     1     -10.627   1.399 -15.406  0.00  0.00    -0.479 OA
ATOM     11  C   UNL     1     -11.621   1.948 -16.159  0.00  0.00    +0.161 A 
ATOM     12  C   UNL     1     -12.262   3.066 -15.637  0.00  0.00    +0.051 A 
ENDROOT
TORSDOF 0
ENDMDL
MODEL 4
REMARK VINA RESULT:      -5.0      1.987      3.712
REMARK  Name = min_compound9.pdb
REMARK  0 active torsions:
REMARK  status: ('A' for Active; 'I' for Inactive)
REMARK                            x       y       z     vdW  Elec       q    Type
REMARK                         _______ _______ _______ _____ _____    ______ ____
ROOT
ATOM      1  C   UNL     1     -12.898   3.797 -17.196  0.00  0.00    +0.023 A 
ATOM      2  C   UNL     1     -12.279   3.974 -15.968  0.00  0.00    +0.113 A 
ATOM      3  N   UNL     1     -11.420   3.083 -15.423  0.00  0.00    -0.237 NA
ATOM      4  C   UNL     1     -11.174   1.968 -16.140  0.00  0.00    +0.167 A 
ATOM      5  N   UNL     1     -10.291   1.063 -15.577  0.00  0.00    -0.265 N 
ATOM      6  H   UNL     1      -9.888   1.292 -14.682  0.00  0.00    +0.156 HD
ATOM      7  C   UNL     1      -9.959  -0.107 -16.187  0.00  0.00    +0.256 C 
ATOM      8  O   UNL     1      -9.171  -0.900 -15.676  0.00  0.00    -0.272 OA
ATOM      9  C   UNL     1     -10.638  -0.370 -17.534  0.00  0.00    +0.325 C 
ATOM     10  O   UNL     1     -11.506   0.583 -18.127  0.00  0.00    -0.479 OA
ATOM     11  C   UNL     1     -11.745   1.699 -17.380  0.00  0.00    +0.161 A 
ATOM     12  C   UNL     1     -12.622   2.637 -17.912  0.00  0.00    +0.051 A 
ENDROOT
TORSDOF 0
ENDMDL
MODEL 5
REMARK VINA RESULT:      -5.0      2.003      2.744
REMARK  Name = min_compound9.pdb
REMARK  0 active torsions:
REMARK  status: ('A' for Active; 'I' for Inactive)
REMARK                            x       y       z     vdW  Elec       q    Type
REMARK                         _______ _______ _______ _____ _____    ______ ____
ROOT
ATOM      1  C   UNL     1      -9.446  -0.014 -17.305  0.00  0.00    +0.023 A 
ATOM      2  C   UNL     1     -10.421  -0.933 -16.950  0.00  0.00    +0.113 A 
ATOM      3  N   UNL     1     -11.703  -0.604 -16.680  0.00  0.00    -0.237 NA
ATOM      4  C   UNL     1     -12.021   0.704 -16.768  0.00  0.00    +0.167 A 
ATOM      5  N   UNL     1     -13.337   1.033 -16.493  0.00  0.00    -0.265 N 
ATOM      6  H   UNL     1     -13.970   0.285 -16.254  0.00  0.00    +0.156 HD
ATOM      7  C   UNL     1     -13.792   2.313 -16.536  0.00  0.00    +0.256 C 
ATOM      8  O   UNL     1     -14.965   2.591 -16.293  0.00  0.00    -0.272 OA
ATOM      9  C   UNL     1     -12.751   3.377 -16.893  0.00  0.00    +0.325 C 
ATOM     10  O   UNL     1     -11.414   3.029 -17.218  0.00  0.00    -0.479 OA
ATOM     11  C   UNL     1     -11.116   1.702 -17.115  0.00  0.00    +0.161 A 
ATOM     12  C   UNL     1      -9.805   1.328 -17.389  0.00  0.00    +0.051 A 
ENDROOT
TORSDOF 0
ENDMDL
MODEL 6
REMARK VINA RESULT:      -4.9     11.539     12.076
REMARK  Name = min_compound9.pdb
REMARK  0 active torsions:
REMARK  status: ('A' for Active; 'I' for Inactive)
REMARK                            x       y       z     vdW  Elec       q    Type
REMARK                         _______ _______ _______ _____ _____    ______ ____
ROOT
ATOM      1  C   UNL     1     -13.640   1.068  -3.257  0.00  0.00    +0.023 A 
ATOM      2  C   UNL     1     -14.031  -0.239  -3.013  0.00  0.00    +0.113 A 
ATOM      3  N   UNL     1     -14.702  -1.003  -3.904  0.00  0.00    -0.237 NA
ATOM      4  C   UNL     1     -14.995  -0.429  -5.089  0.00  0.00    +0.167 A 
ATOM      5  N   UNL     1     -15.679  -1.219  -5.997  0.00  0.00    -0.265 N 
ATOM      6  H   UNL     1     -15.908  -2.162  -5.723  0.00  0.00    +0.156 HD
ATOM      7  C   UNL     1     -16.045  -0.765  -7.226  0.00  0.00    +0.256 C 
ATOM      8  O   UNL     1     -16.650  -1.478  -8.023  0.00  0.00    -0.272 OA
ATOM      9  C   UNL     1     -15.666   0.685  -7.539  0.00  0.00    +0.325 C 
ATOM     10  O   UNL     1     -14.925   1.474  -6.621  0.00  0.00    -0.479 OA
ATOM     11  C   UNL     1     -14.647   0.874  -5.428  0.00  0.00    +0.161 A 
ATOM     12  C   UNL     1     -13.955   1.631  -4.489  0.00  0.00    +0.051 A 
ENDROOT
TORSDOF 0
ENDMDL
MODEL 7
REMARK VINA RESULT:      -4.9      2.152      4.499
REMARK  Name = min_compound9.pdb
REMARK  0 active torsions:
REMARK  status: ('A' for Active; 'I' for Inactive)
REMARK                            x       y       z     vdW  Elec       q    Type
REMARK                         _______ _______ _______ _____ _____    ______ ____
ROOT
ATOM      1  C   UNL     1     -11.645   5.363 -17.572  0.00  0.00    +0.023 A 
ATOM      2  C   UNL     1     -12.589   4.758 -18.386  0.00  0.00    +0.113 A 
ATOM      3  N   UNL     1     -12.847   3.431 -18.381  0.00  0.00    -0.237 NA
ATOM      4  C   UNL     1     -12.127   2.680 -17.523  0.00  0.00    +0.167 A 
ATOM      5  N   UNL     1     -12.399   1.324 -17.522  0.00  0.00    -0.265 N 
ATOM      6  H   UNL     1     -13.114   0.986 -18.148  0.00  0.00    +0.156 HD
ATOM      7  C   UNL     1     -11.742   0.449 -16.714  0.00  0.00    +0.256 C 
ATOM      8  O   UNL     1     -11.997  -0.753 -16.721  0.00  0.00    -0.272 OA
ATOM      9  C   UNL     1     -10.665   1.058 -15.813  0.00  0.00    +0.325 C 
ATOM     10  O   UNL     1     -10.421   2.457 -15.786  0.00  0.00    -0.479 OA
ATOM     11  C   UNL     1     -11.158   3.193 -16.667  0.00  0.00    +0.161 A 
ATOM     12  C   UNL     1     -10.918   4.562 -16.697  0.00  0.00    +0.051 A 
ENDROOT
TORSDOF 0
ENDMDL
MODEL 8
REMARK VINA RESULT:      -4.7     11.839     12.420
REMARK  Name = min_compound9.pdb
REMARK  0 active torsions:
REMARK  status: ('A' for Active; 'I' for Inactive)
REMARK                            x       y       z     vdW  Elec       q    Type
REMARK                         _______ _______ _______ _____ _____    ______ ____
ROOT
ATOM      1  C   UNL     1     -13.847   2.417  -3.491  0.00  0.00    +0.023 A 
ATOM      2  C   UNL     1     -15.058   2.982  -3.857  0.00  0.00    +0.113 A 
ATOM      3  N   UNL     1     -15.924   2.409  -4.723  0.00  0.00    -0.237 NA
ATOM      4  C   UNL     1     -15.558   1.221  -5.244  0.00  0.00    +0.167 A 
ATOM      5  N   UNL     1     -16.451   0.640  -6.127  0.00  0.00    -0.265 N 
ATOM      6  H   UNL     1     -17.311   1.131  -6.319  0.00  0.00    +0.156 HD
ATOM      7  C   UNL     1     -16.206  -0.552  -6.733  0.00  0.00    +0.256 C 
ATOM      8  O   UNL     1     -17.010  -1.058  -7.513  0.00  0.00    -0.272 OA
ATOM      9  C   UNL     1     -14.866  -1.209  -6.390  0.00  0.00    +0.325 C 
ATOM     10  O   UNL     1     -13.975  -0.630  -5.449  0.00  0.00    -0.479 OA
ATOM     11  C   UNL     1     -14.365   0.574  -4.941  0.00  0.00    +0.161 A 
ATOM     12  C   UNL     1     -13.497   1.189  -4.045  0.00  0.00    +0.051 A 
ENDROOT
TORSDOF 0
ENDMDL
MODEL 9
REMARK VINA RESULT:      -4.6     13.688     14.339
REMARK  Name = min_compound9.pdb
REMARK  0 active torsions:
REMARK  status: ('A' for Active; 'I' for Inactive)
REMARK                            x       y       z     vdW  Elec       q    Type
REMARK                         _______ _______ _______ _____ _____    ______ ____
ROOT
ATOM      1  C   UNL     1     -13.680   2.295  -3.614  0.00  0.00    +0.023 A 
ATOM      2  C   UNL     1     -14.977   2.710  -3.874  0.00  0.00    +0.113 A 
ATOM      3  N   UNL     1     -16.049   1.886  -3.853  0.00  0.00    -0.237 NA
ATOM      4  C   UNL     1     -15.809   0.592  -3.561  0.00  0.00    +0.167 A 
ATOM      5  N   UNL     1     -16.912  -0.243  -3.538  0.00  0.00    -0.265 N 
ATOM      6  H   UNL     1     -17.814   0.162  -3.733  0.00  0.00    +0.156 HD
ATOM      7  C   UNL     1     -16.814  -1.572  -3.266  0.00  0.00    +0.256 C 
ATOM      8  O   UNL     1     -17.803  -2.302  -3.246  0.00  0.00    -0.272 OA
ATOM      9  C   UNL     1     -15.399  -2.094  -3.001  0.00  0.00    +0.325 C 
ATOM     10  O   UNL     1     -14.278  -1.223  -2.980  0.00  0.00    -0.479 OA
ATOM     11  C   UNL     1     -14.546   0.078  -3.286  0.00  0.00    +0.161 A 
ATOM     12  C   UNL     1     -13.465   0.953  -3.314  0.00  0.00    +0.051 A 
ENDROOT
TORSDOF 0
ENDMDL
