MODEL 1
REMARK VINA RESULT:      -7.9      0.000      0.000
REMARK  Name = min_compound991.pdb
REMARK  6 active torsions:
REMARK  status: ('A' for Active; 'I' for Inactive)
REMARK    1  A    between atoms: _1  and  _7
REMARK    2  A    between atoms: _1  and  _20
REMARK    3  A    between atoms: _8  and  _20
REMARK    4  A    between atoms: _10  and  _22
REMARK    5  A    between atoms: _15  and  _24
REMARK    6  A    between atoms: _22  and  _24
REMARK                            x       y       z     vdW  Elec       q    Type
REMARK                         _______ _______ _______ _____ _____    ______ ____
ROOT
ATOM      1  C   UNL     1     -14.052   5.194 -17.555  0.00  0.00    +0.073 A 
ATOM      2  C   UNL     1     -14.191   6.337 -18.351  0.00  0.00    +0.016 A 
ATOM      3  C   UNL     1     -13.077   7.140 -18.610  0.00  0.00    +0.001 A 
ATOM      4  C   UNL     1     -11.828   6.809 -18.076  0.00  0.00    +0.001 A 
ATOM      5  C   UNL     1     -11.684   5.662 -17.293  0.00  0.00    +0.016 A 
ATOM      6  C   UNL     1     -12.800   4.857 -17.038  0.00  0.00    +0.073 A 
ENDROOT
BRANCH   6   7
ATOM      7  C   UNL     1     -12.623   3.562 -16.382  0.00  0.00    +0.340 C 
ATOM      8  O   UNL     1     -12.751   3.428 -15.176  0.00  0.00    -0.245 OA
BRANCH   7   9
ATOM      9  O   UNL     1     -12.350   2.574 -17.284  0.00  0.00    -0.458 OA
BRANCH   9  10
ATOM     10  C   UNL     1     -11.631   1.470 -16.581  0.00  0.00    +0.177 C 
ATOM     11  C   UNL     1     -11.765  -0.021 -17.119  0.00  0.00    +0.044 C 
ATOM     12  C   UNL     1     -10.902  -0.968 -16.056  0.00  0.00    +0.004 C 
ATOM     13  C   UNL     1      -9.500  -0.639 -16.476  0.00  0.00    +0.000 C 
ATOM     14  C   UNL     1      -9.412   0.445 -17.480  0.00  0.00    +0.004 C 
ATOM     15  C   UNL     1     -10.229   1.799 -17.001  0.00  0.00    +0.044 C 
ENDBRANCH   9  10
ENDBRANCH   7   9
ENDBRANCH   6   7
BRANCH   1  16
ATOM     16  C   UNL     1     -15.266   4.430 -17.202  0.00  0.00    +0.340 C 
ATOM     17  O   UNL     1     -15.747   3.526 -17.856  0.00  0.00    -0.245 OA
BRANCH  16  18
ATOM     18  O   UNL     1     -15.856   5.126 -16.194  0.00  0.00    -0.458 OA
BRANCH  18  19
ATOM     19  C   UNL     1     -16.005   4.514 -14.833  0.00  0.00    +0.177 C 
ATOM     20  C   UNL     1     -16.856   3.293 -14.649  0.00  0.00    +0.044 C 
ATOM     21  C   UNL     1     -17.005   2.680 -13.288  0.00  0.00    +0.004 C 
ATOM     22  C   UNL     1     -16.779   3.683 -12.090  0.00  0.00    +0.000 C 
ATOM     23  C   UNL     1     -15.451   4.511 -12.295  0.00  0.00    +0.004 C 
ATOM     24  C   UNL     1     -15.302   5.123 -13.656  0.00  0.00    +0.044 C 
ENDBRANCH  18  19
ENDBRANCH  16  18
ENDBRANCH   1  16
TORSDOF 6
ENDMDL
MODEL 2
REMARK VINA RESULT:      -7.9      1.060      6.005
REMARK  Name = min_compound991.pdb
REMARK  6 active torsions:
REMARK  status: ('A' for Active; 'I' for Inactive)
REMARK    1  A    between atoms: _1  and  _7
REMARK    2  A    between atoms: _1  and  _20
REMARK    3  A    between atoms: _8  and  _20
REMARK    4  A    between atoms: _10  and  _22
REMARK    5  A    between atoms: _15  and  _24
REMARK    6  A    between atoms: _22  and  _24
REMARK                            x       y       z     vdW  Elec       q    Type
REMARK                         _______ _______ _______ _____ _____    ______ ____
ROOT
ATOM      1  C   UNL     1     -12.304   4.979 -16.980  0.00  0.00    +0.073 A 
ATOM      2  C   UNL     1     -11.729   6.122 -17.547  0.00  0.00    +0.016 A 
ATOM      3  C   UNL     1     -12.548   7.108 -18.102  0.00  0.00    +0.001 A 
ATOM      4  C   UNL     1     -13.938   6.957 -18.095  0.00  0.00    +0.001 A 
ATOM      5  C   UNL     1     -14.516   5.825 -17.518  0.00  0.00    +0.016 A 
ATOM      6  C   UNL     1     -13.693   4.840 -16.960  0.00  0.00    +0.073 A 
ENDROOT
BRANCH   6   7
ATOM      7  C   UNL     1     -14.291   3.749 -16.191  0.00  0.00    +0.340 C 
ATOM      8  O   UNL     1     -14.697   2.731 -16.727  0.00  0.00    -0.245 OA
BRANCH   7   9
ATOM      9  O   UNL     1     -14.285   4.015 -14.852  0.00  0.00    -0.458 OA
BRANCH   9  10
ATOM     10  C   UNL     1     -15.697   4.070 -14.369  0.00  0.00    +0.177 C 
ATOM     11  C   UNL     1     -16.453   2.719 -14.003  0.00  0.00    +0.044 C 
ATOM     12  C   UNL     1     -18.001   3.163 -13.583  0.00  0.00    +0.004 C 
ATOM     13  C   UNL     1     -17.759   3.732 -12.216  0.00  0.00    +0.000 C 
ATOM     14  C   UNL     1     -16.328   3.834 -11.853  0.00  0.00    +0.004 C 
ATOM     15  C   UNL     1     -15.455   4.638 -13.002  0.00  0.00    +0.044 C 
ENDBRANCH   9  10
ENDBRANCH   7   9
ENDBRANCH   6   7
BRANCH   1  16
ATOM     16  C   UNL     1     -11.412   3.901 -16.508  0.00  0.00    +0.340 C 
ATOM     17  O   UNL     1     -10.669   3.968 -15.549  0.00  0.00    -0.245 OA
BRANCH  16  18
ATOM     18  O   UNL     1     -11.391   2.979 -17.507  0.00  0.00    -0.458 OA
BRANCH  18  19
ATOM     19  C   UNL     1     -11.010   1.557 -17.222  0.00  0.00    +0.177 C 
ATOM     20  C   UNL     1     -12.010   0.619 -16.614  0.00  0.00    +0.044 C 
ATOM     21  C   UNL     1     -11.628  -0.803 -16.329  0.00  0.00    +0.004 C 
ATOM     22  C   UNL     1     -10.083  -1.035 -16.112  0.00  0.00    +0.000 C 
ATOM     23  C   UNL     1      -9.246  -0.350 -17.260  0.00  0.00    +0.004 C 
ATOM     24  C   UNL     1      -9.627   1.072 -17.545  0.00  0.00    +0.044 C 
ENDBRANCH  18  19
ENDBRANCH  16  18
ENDBRANCH   1  16
TORSDOF 6
ENDMDL
MODEL 3
REMARK VINA RESULT:      -7.8      1.160      1.903
REMARK  Name = min_compound991.pdb
REMARK  6 active torsions:
REMARK  status: ('A' for Active; 'I' for Inactive)
REMARK    1  A    between atoms: _1  and  _7
REMARK    2  A    between atoms: _1  and  _20
REMARK    3  A    between atoms: _8  and  _20
REMARK    4  A    between atoms: _10  and  _22
REMARK    5  A    between atoms: _15  and  _24
REMARK    6  A    between atoms: _22  and  _24
REMARK                            x       y       z     vdW  Elec       q    Type
REMARK                         _______ _______ _______ _____ _____    ______ ____
ROOT
ATOM      1  C   UNL     1     -14.100   4.904 -17.003  0.00  0.00    +0.073 A 
ATOM      2  C   UNL     1     -14.704   6.145 -16.776  0.00  0.00    +0.016 A 
ATOM      3  C   UNL     1     -14.083   7.312 -17.230  0.00  0.00    +0.001 A 
ATOM      4  C   UNL     1     -12.861   7.245 -17.906  0.00  0.00    +0.001 A 
ATOM      5  C   UNL     1     -12.262   6.007 -18.145  0.00  0.00    +0.016 A 
ATOM      6  C   UNL     1     -12.887   4.839 -17.693  0.00  0.00    +0.073 A 
ENDROOT
BRANCH   6   7
ATOM      7  C   UNL     1     -12.367   3.536 -18.102  0.00  0.00    +0.340 C 
ATOM      8  O   UNL     1     -12.912   2.867 -18.965  0.00  0.00    -0.245 OA
BRANCH   7   9
ATOM      9  O   UNL     1     -11.218   3.220 -17.436  0.00  0.00    -0.458 OA
BRANCH   9  10
ATOM     10  C   UNL     1     -11.118   1.734 -17.332  0.00  0.00    +0.177 C 
ATOM     11  C   UNL     1      -9.721   1.021 -17.599  0.00  0.00    +0.044 C 
ATOM     12  C   UNL     1     -10.011  -0.613 -17.468  0.00  0.00    +0.004 C 
ATOM     13  C   UNL     1     -10.120  -0.751 -15.979  0.00  0.00    +0.000 C 
ATOM     14  C   UNL     1     -10.101   0.538 -15.253  0.00  0.00    +0.004 C 
ATOM     15  C   UNL     1     -11.226   1.596 -15.842  0.00  0.00    +0.044 C 
ENDBRANCH   9  10
ENDBRANCH   7   9
ENDBRANCH   6   7
BRANCH   1  16
ATOM     16  C   UNL     1     -14.718   3.700 -16.412  0.00  0.00    +0.340 C 
ATOM     17  O   UNL     1     -15.631   3.063 -16.899  0.00  0.00    -0.245 OA
BRANCH  16  18
ATOM     18  O   UNL     1     -14.262   3.646 -15.132  0.00  0.00    -0.458 OA
BRANCH  18  19
ATOM     19  C   UNL     1     -15.214   3.773 -13.980  0.00  0.00    +0.177 C 
ATOM     20  C   UNL     1     -14.966   4.795 -12.910  0.00  0.00    +0.044 C 
ATOM     21  C   UNL     1     -15.918   4.921 -11.758  0.00  0.00    +0.004 C 
ATOM     22  C   UNL     1     -16.731   3.608 -11.434  0.00  0.00    +0.000 C 
ATOM     23  C   UNL     1     -17.366   3.003 -12.745  0.00  0.00    +0.004 C 
ATOM     24  C   UNL     1     -16.414   2.877 -13.897  0.00  0.00    +0.044 C 
ENDBRANCH  18  19
ENDBRANCH  16  18
ENDBRANCH   1  16
TORSDOF 6
ENDMDL
MODEL 4
REMARK VINA RESULT:      -7.3      2.579      4.877
REMARK  Name = min_compound991.pdb
REMARK  6 active torsions:
REMARK  status: ('A' for Active; 'I' for Inactive)
REMARK    1  A    between atoms: _1  and  _7
REMARK    2  A    between atoms: _1  and  _20
REMARK    3  A    between atoms: _8  and  _20
REMARK    4  A    between atoms: _10  and  _22
REMARK    5  A    between atoms: _15  and  _24
REMARK    6  A    between atoms: _22  and  _24
REMARK                            x       y       z     vdW  Elec       q    Type
REMARK                         _______ _______ _______ _____ _____    ______ ____
ROOT
ATOM      1  C   UNL     1     -13.310   5.098 -17.020  0.00  0.00    +0.073 A 
ATOM      2  C   UNL     1     -14.583   5.488 -16.586  0.00  0.00    +0.016 A 
ATOM      3  C   UNL     1     -15.151   4.877 -15.466  0.00  0.00    +0.001 A 
ATOM      4  C   UNL     1     -14.457   3.877 -14.779  0.00  0.00    +0.001 A 
ATOM      5  C   UNL     1     -13.183   3.494 -15.200  0.00  0.00    +0.016 A 
ATOM      6  C   UNL     1     -12.614   4.110 -16.321  0.00  0.00    +0.073 A 
ENDROOT
BRANCH   6   7
ATOM      7  C   UNL     1     -11.214   3.853 -16.654  0.00  0.00    +0.340 C 
ATOM      8  O   UNL     1     -10.300   4.271 -15.963  0.00  0.00    -0.245 OA
BRANCH   7   9
ATOM      9  O   UNL     1     -11.096   3.079 -17.774  0.00  0.00    -0.458 OA
BRANCH   9  10
ATOM     10  C   UNL     1     -10.578   1.736 -17.375  0.00  0.00    +0.177 C 
ATOM     11  C   UNL     1     -10.497   1.353 -15.833  0.00  0.00    +0.044 C 
ATOM     12  C   UNL     1      -9.811  -0.163 -15.776  0.00  0.00    +0.004 C 
ATOM     13  C   UNL     1     -10.973  -1.003 -16.217  0.00  0.00    +0.000 C 
ATOM     14  C   UNL     1     -12.146  -0.219 -16.666  0.00  0.00    +0.004 C 
ATOM     15  C   UNL     1     -11.740   0.896 -17.815  0.00  0.00    +0.044 C 
ENDBRANCH   9  10
ENDBRANCH   7   9
ENDBRANCH   6   7
BRANCH   1  16
ATOM     16  C   UNL     1     -12.784   5.676 -18.273  0.00  0.00    +0.340 C 
ATOM     17  O   UNL     1     -11.798   6.379 -18.366  0.00  0.00    -0.245 OA
BRANCH  16  18
ATOM     18  O   UNL     1     -13.766   5.500 -19.197  0.00  0.00    -0.458 OA
BRANCH  18  19
ATOM     19  C   UNL     1     -13.688   4.373 -20.184  0.00  0.00    +0.177 C 
ATOM     20  C   UNL     1     -14.111   2.992 -19.781  0.00  0.00    +0.044 C 
ATOM     21  C   UNL     1     -14.033   1.866 -20.768  0.00  0.00    +0.004 C 
ATOM     22  C   UNL     1     -12.966   2.071 -21.913  0.00  0.00    +0.000 C 
ATOM     23  C   UNL     1     -13.108   3.502 -22.562  0.00  0.00    +0.004 C 
ATOM     24  C   UNL     1     -13.186   4.628 -21.575  0.00  0.00    +0.044 C 
ENDBRANCH  18  19
ENDBRANCH  16  18
ENDBRANCH   1  16
TORSDOF 6
ENDMDL
MODEL 5
REMARK VINA RESULT:      -7.2      2.480      5.645
REMARK  Name = min_compound991.pdb
REMARK  6 active torsions:
REMARK  status: ('A' for Active; 'I' for Inactive)
REMARK    1  A    between atoms: _1  and  _7
REMARK    2  A    between atoms: _1  and  _20
REMARK    3  A    between atoms: _8  and  _20
REMARK    4  A    between atoms: _10  and  _22
REMARK    5  A    between atoms: _15  and  _24
REMARK    6  A    between atoms: _22  and  _24
REMARK                            x       y       z     vdW  Elec       q    Type
REMARK                         _______ _______ _______ _____ _____    ______ ____
ROOT
ATOM      1  C   UNL     1     -12.851   4.356 -16.301  0.00  0.00    +0.073 A 
ATOM      2  C   UNL     1     -13.462   3.677 -15.241  0.00  0.00    +0.016 A 
ATOM      3  C   UNL     1     -14.744   4.049 -14.827  0.00  0.00    +0.001 A 
ATOM      4  C   UNL     1     -15.416   5.095 -15.465  0.00  0.00    +0.001 A 
ATOM      5  C   UNL     1     -14.815   5.765 -16.531  0.00  0.00    +0.016 A 
ATOM      6  C   UNL     1     -13.532   5.389 -16.946  0.00  0.00    +0.073 A 
ENDROOT
BRANCH   6   7
ATOM      7  C   UNL     1     -12.975   5.954 -18.175  0.00  0.00    +0.340 C 
ATOM      8  O   UNL     1     -11.916   6.561 -18.182  0.00  0.00    -0.245 OA
BRANCH   7   9
ATOM      9  O   UNL     1     -13.758   5.675 -19.258  0.00  0.00    -0.458 OA
BRANCH   9  10
ATOM     10  C   UNL     1     -13.309   4.381 -19.853  0.00  0.00    +0.177 C 
ATOM     11  C   UNL     1     -14.257   3.106 -19.766  0.00  0.00    +0.044 C 
ATOM     12  C   UNL     1     -13.402   1.856 -20.458  0.00  0.00    +0.004 C 
ATOM     13  C   UNL     1     -13.533   2.208 -21.910  0.00  0.00    +0.000 C 
ATOM     14  C   UNL     1     -14.172   3.520 -22.155  0.00  0.00    +0.004 C 
ATOM     15  C   UNL     1     -13.439   4.733 -21.305  0.00  0.00    +0.044 C 
ENDBRANCH   9  10
ENDBRANCH   7   9
ENDBRANCH   6   7
BRANCH   1  16
ATOM     16  C   UNL     1     -11.453   4.021 -16.640  0.00  0.00    +0.340 C 
ATOM     17  O   UNL     1     -10.474   4.665 -16.317  0.00  0.00    -0.245 OA
BRANCH  16  18
ATOM     18  O   UNL     1     -11.529   3.052 -17.591  0.00  0.00    -0.458 OA
BRANCH  18  19
ATOM     19  C   UNL     1     -11.141   1.639 -17.269  0.00  0.00    +0.177 C 
ATOM     20  C   UNL     1     -12.172   0.674 -16.764  0.00  0.00    +0.044 C 
ATOM     21  C   UNL     1     -11.784  -0.738 -16.443  0.00  0.00    +0.004 C 
ATOM     22  C   UNL     1     -10.262  -0.932 -16.073  0.00  0.00    +0.000 C 
ATOM     23  C   UNL     1      -9.333  -0.222 -17.132  0.00  0.00    +0.004 C 
ATOM     24  C   UNL     1      -9.721   1.191 -17.453  0.00  0.00    +0.044 C 
ENDBRANCH  18  19
ENDBRANCH  16  18
ENDBRANCH   1  16
TORSDOF 6
ENDMDL
MODEL 6
REMARK VINA RESULT:      -7.0     10.938     14.108
REMARK  Name = min_compound991.pdb
REMARK  6 active torsions:
REMARK  status: ('A' for Active; 'I' for Inactive)
REMARK    1  A    between atoms: _1  and  _7
REMARK    2  A    between atoms: _1  and  _20
REMARK    3  A    between atoms: _8  and  _20
REMARK    4  A    between atoms: _10  and  _22
REMARK    5  A    between atoms: _15  and  _24
REMARK    6  A    between atoms: _22  and  _24
REMARK                            x       y       z     vdW  Elec       q    Type
REMARK                         _______ _______ _______ _____ _____    ______ ____
ROOT
ATOM      1  C   UNL     1     -15.891   0.613  -3.500  0.00  0.00    +0.073 A 
ATOM      2  C   UNL     1     -15.977   1.980  -3.789  0.00  0.00    +0.016 A 
ATOM      3  C   UNL     1     -14.813   2.752  -3.842  0.00  0.00    +0.001 A 
ATOM      4  C   UNL     1     -13.566   2.166  -3.606  0.00  0.00    +0.001 A 
ATOM      5  C   UNL     1     -13.476   0.801  -3.330  0.00  0.00    +0.016 A 
ATOM      6  C   UNL     1     -14.642   0.029  -3.280  0.00  0.00    +0.073 A 
ENDROOT
BRANCH   6   7
ATOM      7  C   UNL     1     -14.543  -1.427  -3.181  0.00  0.00    +0.340 C 
ATOM      8  O   UNL     1     -14.401  -2.131  -4.167  0.00  0.00    -0.245 OA
BRANCH   7   9
ATOM      9  O   UNL     1     -14.587  -1.847  -1.882  0.00  0.00    -0.458 OA
BRANCH   9  10
ATOM     10  C   UNL     1     -14.495  -3.338  -1.859  0.00  0.00    +0.177 C 
ATOM     11  C   UNL     1     -13.179  -4.034  -1.297  0.00  0.00    +0.044 C 
ATOM     12  C   UNL     1     -13.408  -5.670  -1.498  0.00  0.00    +0.004 C 
ATOM     13  C   UNL     1     -14.374  -5.947  -0.383  0.00  0.00    +0.000 C 
ATOM     14  C   UNL     1     -14.854  -4.732   0.311  0.00  0.00    +0.004 C 
ATOM     15  C   UNL     1     -15.460  -3.615  -0.745  0.00  0.00    +0.044 C 
ENDBRANCH   9  10
ENDBRANCH   7   9
ENDBRANCH   6   7
BRANCH   1  16
ATOM     16  C   UNL     1     -17.143  -0.152  -3.334  0.00  0.00    +0.340 C 
ATOM     17  O   UNL     1     -17.815  -0.197  -2.323  0.00  0.00    -0.245 OA
BRANCH  16  18
ATOM     18  O   UNL     1     -17.208  -0.984  -4.407  0.00  0.00    -0.458 OA
BRANCH  18  19
ATOM     19  C   UNL     1     -17.329  -0.427  -5.795  0.00  0.00    +0.177 C 
ATOM     20  C   UNL     1     -16.336  -0.818  -6.849  0.00  0.00    +0.044 C 
ATOM     21  C   UNL     1     -16.458  -0.261  -8.237  0.00  0.00    +0.004 C 
ATOM     22  C   UNL     1     -17.210   1.123  -8.323  0.00  0.00    +0.000 C 
ATOM     23  C   UNL     1     -18.564   1.077  -7.515  0.00  0.00    +0.004 C 
ATOM     24  C   UNL     1     -18.443   0.520  -6.128  0.00  0.00    +0.044 C 
ENDBRANCH  18  19
ENDBRANCH  16  18
ENDBRANCH   1  16
TORSDOF 6
ENDMDL
MODEL 7
REMARK VINA RESULT:      -7.0      2.272      5.406
REMARK  Name = min_compound991.pdb
REMARK  6 active torsions:
REMARK  status: ('A' for Active; 'I' for Inactive)
REMARK    1  A    between atoms: _1  and  _7
REMARK    2  A    between atoms: _1  and  _20
REMARK    3  A    between atoms: _8  and  _20
REMARK    4  A    between atoms: _10  and  _22
REMARK    5  A    between atoms: _15  and  _24
REMARK    6  A    between atoms: _22  and  _24
REMARK                            x       y       z     vdW  Elec       q    Type
REMARK                         _______ _______ _______ _____ _____    ______ ____
ROOT
ATOM      1  C   UNL     1     -13.310   5.459 -17.001  0.00  0.00    +0.073 A 
ATOM      2  C   UNL     1     -14.577   6.024 -16.818  0.00  0.00    +0.016 A 
ATOM      3  C   UNL     1     -15.511   5.383 -15.999  0.00  0.00    +0.001 A 
ATOM      4  C   UNL     1     -15.185   4.181 -15.365  0.00  0.00    +0.001 A 
ATOM      5  C   UNL     1     -13.918   3.621 -15.534  0.00  0.00    +0.016 A 
ATOM      6  C   UNL     1     -12.983   4.266 -16.353  0.00  0.00    +0.073 A 
ENDROOT
BRANCH   6   7
ATOM      7  C   UNL     1     -11.601   3.792 -16.386  0.00  0.00    +0.340 C 
ATOM      8  O   UNL     1     -10.751   4.233 -15.630  0.00  0.00    -0.245 OA
BRANCH   7   9
ATOM      9  O   UNL     1     -11.429   2.804 -17.312  0.00  0.00    -0.458 OA
BRANCH   9  10
ATOM     10  C   UNL     1     -11.120   1.528 -16.600  0.00  0.00    +0.177 C 
ATOM     11  C   UNL     1     -11.870   0.191 -17.024  0.00  0.00    +0.044 C 
ATOM     12  C   UNL     1     -11.332  -0.985 -15.976  0.00  0.00    +0.004 C 
ATOM     13  C   UNL     1      -9.962  -1.239 -16.533  0.00  0.00    +0.000 C 
ATOM     14  C   UNL     1      -9.570  -0.304 -17.611  0.00  0.00    +0.004 C 
ATOM     15  C   UNL     1      -9.751   1.274 -17.157  0.00  0.00    +0.044 C 
ENDBRANCH   9  10
ENDBRANCH   7   9
ENDBRANCH   6   7
BRANCH   1  16
ATOM     16  C   UNL     1     -12.387   6.095 -17.963  0.00  0.00    +0.340 C 
ATOM     17  O   UNL     1     -11.714   7.083 -17.748  0.00  0.00    -0.245 OA
BRANCH  16  18
ATOM     18  O   UNL     1     -12.672   5.534 -19.168  0.00  0.00    -0.458 OA
BRANCH  18  19
ATOM     19  C   UNL     1     -12.671   6.369 -20.414  0.00  0.00    +0.177 C 
ATOM     20  C   UNL     1     -13.969   6.806 -21.025  0.00  0.00    +0.044 C 
ATOM     21  C   UNL     1     -13.968   7.641 -22.272  0.00  0.00    +0.004 C 
ATOM     22  C   UNL     1     -12.680   7.478 -23.168  0.00  0.00    +0.000 C 
ATOM     23  C   UNL     1     -11.371   7.602 -22.296  0.00  0.00    +0.004 C 
ATOM     24  C   UNL     1     -11.372   6.767 -21.049  0.00  0.00    +0.044 C 
ENDBRANCH  18  19
ENDBRANCH  16  18
ENDBRANCH   1  16
TORSDOF 6
ENDMDL
MODEL 8
REMARK VINA RESULT:      -7.0      2.626      4.611
REMARK  Name = min_compound991.pdb
REMARK  6 active torsions:
REMARK  status: ('A' for Active; 'I' for Inactive)
REMARK    1  A    between atoms: _1  and  _7
REMARK    2  A    between atoms: _1  and  _20
REMARK    3  A    between atoms: _8  and  _20
REMARK    4  A    between atoms: _10  and  _22
REMARK    5  A    between atoms: _15  and  _24
REMARK    6  A    between atoms: _22  and  _24
REMARK                            x       y       z     vdW  Elec       q    Type
REMARK                         _______ _______ _______ _____ _____    ______ ____
ROOT
ATOM      1  C   UNL     1     -13.853   4.950 -18.261  0.00  0.00    +0.073 A 
ATOM      2  C   UNL     1     -13.906   6.115 -19.035  0.00  0.00    +0.016 A 
ATOM      3  C   UNL     1     -12.873   7.051 -18.950  0.00  0.00    +0.001 A 
ATOM      4  C   UNL     1     -11.790   6.832 -18.094  0.00  0.00    +0.001 A 
ATOM      5  C   UNL     1     -11.727   5.665 -17.330  0.00  0.00    +0.016 A 
ATOM      6  C   UNL     1     -12.762   4.727 -17.419  0.00  0.00    +0.073 A 
ENDROOT
BRANCH   6   7
ATOM      7  C   UNL     1     -12.614   3.425 -16.772  0.00  0.00    +0.340 C 
ATOM      8  O   UNL     1     -13.057   3.206 -15.656  0.00  0.00    -0.245 OA
BRANCH   7   9
ATOM      9  O   UNL     1     -11.977   2.528 -17.581  0.00  0.00    -0.458 OA
BRANCH   9  10
ATOM     10  C   UNL     1     -11.392   1.448 -16.732  0.00  0.00    +0.177 C 
ATOM     11  C   UNL     1     -11.668  -0.075 -17.100  0.00  0.00    +0.044 C 
ATOM     12  C   UNL     1     -10.932  -0.972 -15.907  0.00  0.00    +0.004 C 
ATOM     13  C   UNL     1      -9.494  -0.837 -16.313  0.00  0.00    +0.000 C 
ATOM     14  C   UNL     1      -9.272   0.107 -17.431  0.00  0.00    +0.004 C 
ATOM     15  C   UNL     1      -9.955   1.583 -17.139  0.00  0.00    +0.044 C 
ENDBRANCH   9  10
ENDBRANCH   7   9
ENDBRANCH   6   7
BRANCH   1  16
ATOM     16  C   UNL     1     -15.013   4.036 -18.283  0.00  0.00    +0.340 C 
ATOM     17  O   UNL     1     -16.033   4.173 -17.636  0.00  0.00    -0.245 OA
BRANCH  16  18
ATOM     18  O   UNL     1     -14.584   2.916 -18.923  0.00  0.00    -0.458 OA
BRANCH  18  19
ATOM     19  C   UNL     1     -14.499   2.881 -20.420  0.00  0.00    +0.177 C 
ATOM     20  C   UNL     1     -15.480   3.661 -21.245  0.00  0.00    +0.044 C 
ATOM     21  C   UNL     1     -15.395   3.626 -22.742  0.00  0.00    +0.004 C 
ATOM     22  C   UNL     1     -14.711   2.332 -23.330  0.00  0.00    +0.000 C 
ATOM     23  C   UNL     1     -13.350   2.032 -22.590  0.00  0.00    +0.004 C 
ATOM     24  C   UNL     1     -13.434   2.067 -21.092  0.00  0.00    +0.044 C 
ENDBRANCH  18  19
ENDBRANCH  16  18
ENDBRANCH   1  16
TORSDOF 6
ENDMDL
MODEL 9
REMARK VINA RESULT:      -6.9      1.547      2.471
REMARK  Name = min_compound991.pdb
REMARK  6 active torsions:
REMARK  status: ('A' for Active; 'I' for Inactive)
REMARK    1  A    between atoms: _1  and  _7
REMARK    2  A    between atoms: _1  and  _20
REMARK    3  A    between atoms: _8  and  _20
REMARK    4  A    between atoms: _10  and  _22
REMARK    5  A    between atoms: _15  and  _24
REMARK    6  A    between atoms: _22  and  _24
REMARK                            x       y       z     vdW  Elec       q    Type
REMARK                         _______ _______ _______ _____ _____    ______ ____
ROOT
ATOM      1  C   UNL     1     -14.868   4.121 -17.461  0.00  0.00    +0.073 A 
ATOM      2  C   UNL     1     -15.939   4.029 -18.357  0.00  0.00    +0.016 A 
ATOM      3  C   UNL     1     -15.705   3.645 -19.680  0.00  0.00    +0.001 A 
ATOM      4  C   UNL     1     -14.407   3.356 -20.112  0.00  0.00    +0.001 A 
ATOM      5  C   UNL     1     -13.338   3.435 -19.218  0.00  0.00    +0.016 A 
ATOM      6  C   UNL     1     -13.576   3.817 -17.892  0.00  0.00    +0.073 A 
ENDROOT
BRANCH   6   7
ATOM      7  C   UNL     1     -12.499   3.719 -16.908  0.00  0.00    +0.340 C 
ATOM      8  O   UNL     1     -11.740   4.649 -16.690  0.00  0.00    -0.245 OA
BRANCH   7   9
ATOM      9  O   UNL     1     -12.503   2.509 -16.275  0.00  0.00    -0.458 OA
BRANCH   9  10
ATOM     10  C   UNL     1     -11.512   1.615 -16.947  0.00  0.00    +0.177 C 
ATOM     11  C   UNL     1     -10.144   1.268 -16.213  0.00  0.00    +0.044 C 
ATOM     12  C   UNL     1      -9.280   0.328 -17.281  0.00  0.00    +0.004 C 
ATOM     13  C   UNL     1     -10.012  -0.975 -17.148  0.00  0.00    +0.000 C 
ATOM     14  C   UNL     1     -11.234  -0.896 -16.316  0.00  0.00    +0.004 C 
ATOM     15  C   UNL     1     -12.244   0.313 -16.815  0.00  0.00    +0.044 C 
ENDBRANCH   9  10
ENDBRANCH   7   9
ENDBRANCH   6   7
BRANCH   1  16
ATOM     16  C   UNL     1     -15.128   4.642 -16.103  0.00  0.00    +0.340 C 
ATOM     17  O   UNL     1     -14.925   5.781 -15.733  0.00  0.00    -0.245 OA
BRANCH  16  18
ATOM     18  O   UNL     1     -15.350   3.547 -15.328  0.00  0.00    -0.458 OA
BRANCH  18  19
ATOM     19  C   UNL     1     -15.829   3.700 -13.915  0.00  0.00    +0.177 C 
ATOM     20  C   UNL     1     -14.993   4.445 -12.916  0.00  0.00    +0.044 C 
ATOM     21  C   UNL     1     -15.473   4.598 -11.503  0.00  0.00    +0.004 C 
ATOM     22  C   UNL     1     -16.475   3.477 -11.026  0.00  0.00    +0.000 C 
ATOM     23  C   UNL     1     -17.623   3.263 -12.088  0.00  0.00    +0.004 C 
ATOM     24  C   UNL     1     -17.144   3.109 -13.501  0.00  0.00    +0.044 C 
ENDBRANCH  18  19
ENDBRANCH  16  18
ENDBRANCH   1  16
TORSDOF 6
ENDMDL
