MODEL 1
REMARK VINA RESULT:      -3.6      0.000      0.000
REMARK  Name = min_compound6.pdb
REMARK  1 active torsions:
REMARK  status: ('A' for Active; 'I' for Inactive)
REMARK    1  A    between atoms: _1  and  _8
REMARK                            x       y       z     vdW  Elec       q    Type
REMARK                         _______ _______ _______ _____ _____    ______ ____
ROOT
ATOM      1  C   UNL     1     -10.631   2.945 -15.960  0.00  0.00    +0.208 C 
ATOM      2  S   UNL     1     -11.711   2.944 -17.309  0.00  0.00    -0.048 S 
ATOM      3  S   UNL     1     -11.607   0.925 -17.618  0.00  0.00    -0.031 S 
ATOM      4  C   UNL     1     -10.496   0.597 -16.303  0.00  0.00    +0.119 C 
ATOM      5  S   UNL     1      -9.910  -0.903 -15.897  0.00  0.00    -0.027 S 
ATOM      6  N   UNL     1     -10.146   1.728 -15.619  0.00  0.00    -0.308 N 
ATOM      7  H   UNL     1      -9.510   1.674 -14.837  0.00  0.00    +0.149 HD
ENDROOT
BRANCH   1   8
ATOM      8  N   UNL     1     -10.293   3.996 -15.310  0.00  0.00    -0.304 NA
ATOM      9  H   UNL     1      -9.277   4.092 -15.310  0.00  0.00    +0.121 HD
ATOM     10  H   UNL     1     -10.721   4.806 -15.774  0.00  0.00    +0.121 HD
ENDBRANCH   1   8
TORSDOF 1
ENDMDL
MODEL 2
REMARK VINA RESULT:      -3.6      1.589      3.237
REMARK  Name = min_compound6.pdb
REMARK  1 active torsions:
REMARK  status: ('A' for Active; 'I' for Inactive)
REMARK    1  A    between atoms: _1  and  _8
REMARK                            x       y       z     vdW  Elec       q    Type
REMARK                         _______ _______ _______ _____ _____    ______ ____
ROOT
ATOM      1  C   UNL     1     -10.194   0.054 -16.033  0.00  0.00    +0.208 C 
ATOM      2  S   UNL     1     -11.760  -0.279 -16.683  0.00  0.00    -0.048 S 
ATOM      3  S   UNL     1     -12.378   1.672 -16.664  0.00  0.00    -0.031 S 
ATOM      4  C   UNL     1     -10.892   2.326 -16.003  0.00  0.00    +0.119 C 
ATOM      5  S   UNL     1     -10.614   3.932 -15.684  0.00  0.00    -0.027 S 
ATOM      6  N   UNL     1      -9.954   1.360 -15.768  0.00  0.00    -0.308 N 
ATOM      7  H   UNL     1      -9.053   1.608 -15.386  0.00  0.00    +0.149 HD
ENDROOT
BRANCH   1   8
ATOM      8  N   UNL     1      -9.304  -0.839 -15.806  0.00  0.00    -0.304 NA
ATOM      9  H   UNL     1      -8.374  -0.446 -15.953  0.00  0.00    +0.121 HD
ATOM     10  H   UNL     1      -9.404  -1.144 -14.830  0.00  0.00    +0.121 HD
ENDBRANCH   1   8
TORSDOF 1
ENDMDL
MODEL 3
REMARK VINA RESULT:      -3.5      2.536      2.823
REMARK  Name = min_compound6.pdb
REMARK  1 active torsions:
REMARK  status: ('A' for Active; 'I' for Inactive)
REMARK    1  A    between atoms: _1  and  _8
REMARK                            x       y       z     vdW  Elec       q    Type
REMARK                         _______ _______ _______ _____ _____    ______ ____
ROOT
ATOM      1  C   UNL     1     -12.304   1.582 -18.411  0.00  0.00    +0.208 C 
ATOM      2  S   UNL     1     -12.388   2.892 -17.288  0.00  0.00    -0.048 S 
ATOM      3  S   UNL     1     -11.182   2.007 -15.892  0.00  0.00    -0.031 S 
ATOM      4  C   UNL     1     -10.901   0.536 -16.803  0.00  0.00    +0.119 C 
ATOM      5  S   UNL     1      -9.965  -0.738 -16.294  0.00  0.00    -0.027 S 
ATOM      6  N   UNL     1     -11.544   0.536 -18.009  0.00  0.00    -0.308 N 
ATOM      7  H   UNL     1     -11.462  -0.256 -18.630  0.00  0.00    +0.149 HD
ENDROOT
BRANCH   1   8
ATOM      8  N   UNL     1     -12.900   1.566 -19.545  0.00  0.00    -0.304 NA
ATOM      9  H   UNL     1     -13.909   1.507 -19.405  0.00  0.00    +0.121 HD
ATOM     10  H   UNL     1     -12.666   2.437 -20.037  0.00  0.00    +0.121 HD
ENDBRANCH   1   8
TORSDOF 1
ENDMDL
MODEL 4
REMARK VINA RESULT:      -3.5     12.902     13.338
REMARK  Name = min_compound6.pdb
REMARK  1 active torsions:
REMARK  status: ('A' for Active; 'I' for Inactive)
REMARK    1  A    between atoms: _1  and  _8
REMARK                            x       y       z     vdW  Elec       q    Type
REMARK                         _______ _______ _______ _____ _____    ______ ____
ROOT
ATOM      1  C   UNL     1     -14.653  -1.246  -5.384  0.00  0.00    +0.208 C 
ATOM      2  S   UNL     1     -14.011   0.353  -5.250  0.00  0.00    -0.048 S 
ATOM      3  S   UNL     1     -14.001   0.368  -3.204  0.00  0.00    -0.031 S 
ATOM      4  C   UNL     1     -14.650  -1.248  -3.007  0.00  0.00    +0.119 C 
ATOM      5  S   UNL     1     -14.945  -1.989  -1.550  0.00  0.00    -0.027 S 
ATOM      6  N   UNL     1     -14.898  -1.861  -4.203  0.00  0.00    -0.308 N 
ATOM      7  H   UNL     1     -15.274  -2.798  -4.227  0.00  0.00    +0.149 HD
ENDROOT
BRANCH   1   8
ATOM      8  N   UNL     1     -14.892  -1.834  -6.496  0.00  0.00    -0.304 NA
ATOM      9  H   UNL     1     -14.109  -2.441  -6.742  0.00  0.00    +0.121 HD
ATOM     10  H   UNL     1     -15.745  -2.395  -6.381  0.00  0.00    +0.121 HD
ENDBRANCH   1   8
TORSDOF 1
ENDMDL
MODEL 5
REMARK VINA RESULT:      -3.4     11.110     11.399
REMARK  Name = min_compound6.pdb
REMARK  1 active torsions:
REMARK  status: ('A' for Active; 'I' for Inactive)
REMARK    1  A    between atoms: _1  and  _8
REMARK                            x       y       z     vdW  Elec       q    Type
REMARK                         _______ _______ _______ _____ _____    ______ ____
ROOT
ATOM      1  C   UNL     1     -15.162  -0.921  -6.512  0.00  0.00    +0.208 C 
ATOM      2  S   UNL     1     -14.413   0.597  -6.858  0.00  0.00    -0.048 S 
ATOM      3  S   UNL     1     -16.129   1.495  -7.517  0.00  0.00    -0.031 S 
ATOM      4  C   UNL     1     -17.167   0.104  -7.273  0.00  0.00    +0.119 C 
ATOM      5  S   UNL     1     -18.795   0.056  -7.599  0.00  0.00    -0.027 S 
ATOM      6  N   UNL     1     -16.489  -0.973  -6.773  0.00  0.00    -0.308 N 
ATOM      7  H   UNL     1     -16.975  -1.839  -6.588  0.00  0.00    +0.149 HD
ENDROOT
BRANCH   1   8
ATOM      8  N   UNL     1     -14.542  -1.939  -6.043  0.00  0.00    -0.304 NA
ATOM      9  H   UNL     1     -14.282  -1.770  -5.071  0.00  0.00    +0.121 HD
ATOM     10  H   UNL     1     -15.173  -2.748  -6.101  0.00  0.00    +0.121 HD
ENDBRANCH   1   8
TORSDOF 1
ENDMDL
MODEL 6
REMARK VINA RESULT:      -3.4      2.623      3.794
REMARK  Name = min_compound6.pdb
REMARK  1 active torsions:
REMARK  status: ('A' for Active; 'I' for Inactive)
REMARK    1  A    between atoms: _1  and  _8
REMARK                            x       y       z     vdW  Elec       q    Type
REMARK                         _______ _______ _______ _____ _____    ______ ____
ROOT
ATOM      1  C   UNL     1     -10.549  -0.002 -17.329  0.00  0.00    +0.208 C 
ATOM      2  S   UNL     1     -10.291   0.860 -15.854  0.00  0.00    -0.048 S 
ATOM      3  S   UNL     1     -11.645   2.336 -16.273  0.00  0.00    -0.031 S 
ATOM      4  C   UNL     1     -12.125   1.703 -17.835  0.00  0.00    +0.119 C 
ATOM      5  S   UNL     1     -13.252   2.394 -18.841  0.00  0.00    -0.027 S 
ATOM      6  N   UNL     1     -11.465   0.551 -18.159  0.00  0.00    -0.308 N 
ATOM      7  H   UNL     1     -11.652   0.085 -19.035  0.00  0.00    +0.149 HD
ENDROOT
BRANCH   1   8
ATOM      8  N   UNL     1      -9.938  -1.083 -17.647  0.00  0.00    -0.304 NA
ATOM      9  H   UNL     1     -10.605  -1.762 -18.013  0.00  0.00    +0.121 HD
ATOM     10  H   UNL     1      -9.243  -0.852 -18.368  0.00  0.00    +0.121 HD
ENDBRANCH   1   8
TORSDOF 1
ENDMDL
MODEL 7
REMARK VINA RESULT:      -3.3     15.784     16.332
REMARK  Name = min_compound6.pdb
REMARK  1 active torsions:
REMARK  status: ('A' for Active; 'I' for Inactive)
REMARK    1  A    between atoms: _1  and  _8
REMARK                            x       y       z     vdW  Elec       q    Type
REMARK                         _______ _______ _______ _____ _____    ______ ____
ROOT
ATOM      1  C   UNL     1     -12.640  -3.891  -1.022  0.00  0.00    +0.208 C 
ATOM      2  S   UNL     1     -13.369  -5.405  -1.424  0.00  0.00    -0.048 S 
ATOM      3  S   UNL     1     -15.132  -4.587  -2.066  0.00  0.00    -0.031 S 
ATOM      4  C   UNL     1     -14.679  -2.921  -1.763  0.00  0.00    +0.119 C 
ATOM      5  S   UNL     1     -15.645  -1.601  -2.051  0.00  0.00    -0.027 S 
ATOM      6  N   UNL     1     -13.417  -2.806  -1.252  0.00  0.00    -0.308 N 
ATOM      7  H   UNL     1     -13.037  -1.897  -1.033  0.00  0.00    +0.149 HD
ENDROOT
BRANCH   1   8
ATOM      8  N   UNL     1     -11.459  -3.766  -0.542  0.00  0.00    -0.304 NA
ATOM      9  H   UNL     1     -11.508  -3.625   0.467  0.00  0.00    +0.121 HD
ATOM     10  H   UNL     1     -10.941  -4.629  -0.749  0.00  0.00    +0.121 HD
ENDBRANCH   1   8
TORSDOF 1
ENDMDL
MODEL 8
REMARK VINA RESULT:      -3.2     11.673     11.975
REMARK  Name = min_compound6.pdb
REMARK  1 active torsions:
REMARK  status: ('A' for Active; 'I' for Inactive)
REMARK    1  A    between atoms: _1  and  _8
REMARK                            x       y       z     vdW  Elec       q    Type
REMARK                         _______ _______ _______ _____ _____    ______ ____
ROOT
ATOM      1  C   UNL     1     -15.252  -0.782  -6.258  0.00  0.00    +0.208 C 
ATOM      2  S   UNL     1     -16.261  -0.371  -7.599  0.00  0.00    -0.048 S 
ATOM      3  S   UNL     1     -16.826   1.446  -6.846  0.00  0.00    -0.031 S 
ATOM      4  C   UNL     1     -15.896   1.325  -5.366  0.00  0.00    +0.119 C 
ATOM      5  S   UNL     1     -15.840   2.482  -4.175  0.00  0.00    -0.027 S 
ATOM      6  N   UNL     1     -15.198   0.153  -5.280  0.00  0.00    -0.308 N 
ATOM      7  H   UNL     1     -14.622  -0.039  -4.473  0.00  0.00    +0.149 HD
ENDROOT
BRANCH   1   8
ATOM      8  N   UNL     1     -14.592  -1.876  -6.162  0.00  0.00    -0.304 NA
ATOM      9  H   UNL     1     -13.676  -1.767  -6.597  0.00  0.00    +0.121 HD
ATOM     10  H   UNL     1     -14.481  -2.091  -5.164  0.00  0.00    +0.121 HD
ENDBRANCH   1   8
TORSDOF 1
ENDMDL
MODEL 9
REMARK VINA RESULT:      -3.2     11.169     11.592
REMARK  Name = min_compound6.pdb
REMARK  1 active torsions:
REMARK  status: ('A' for Active; 'I' for Inactive)
REMARK    1  A    between atoms: _1  and  _8
REMARK                            x       y       z     vdW  Elec       q    Type
REMARK                         _______ _______ _______ _____ _____    ______ ____
ROOT
ATOM      1  C   UNL     1     -15.127  -0.669  -6.111  0.00  0.00    +0.208 C 
ATOM      2  S   UNL     1     -15.533   0.079  -4.607  0.00  0.00    -0.048 S 
ATOM      3  S   UNL     1     -16.206   1.818  -5.449  0.00  0.00    -0.031 S 
ATOM      4  C   UNL     1     -15.905   1.344  -7.109  0.00  0.00    +0.119 C 
ATOM      5  S   UNL     1     -16.214   2.284  -8.443  0.00  0.00    -0.027 S 
ATOM      6  N   UNL     1     -15.375   0.088  -7.207  0.00  0.00    -0.308 N 
ATOM      7  H   UNL     1     -15.156  -0.304  -8.111  0.00  0.00    +0.149 HD
ENDROOT
BRANCH   1   8
ATOM      8  N   UNL     1     -14.630  -1.844  -6.220  0.00  0.00    -0.304 NA
ATOM      9  H   UNL     1     -13.664  -1.844  -5.892  0.00  0.00    +0.121 HD
ATOM     10  H   UNL     1     -15.195  -2.480  -5.643  0.00  0.00    +0.121 HD
ENDBRANCH   1   8
TORSDOF 1
ENDMDL
