MODEL 1
REMARK VINA RESULT:      -6.8      0.000      0.000
REMARK  Name = min_compound959.pdb
REMARK  6 active torsions:
REMARK  status: ('A' for Active; 'I' for Inactive)
REMARK    1  A    between atoms: _1  and  _12
REMARK    2  A    between atoms: _6  and  _18
REMARK    3  A    between atoms: _9  and  _11
REMARK    4  A    between atoms: _9  and  _18
REMARK    5  A    between atoms: _11  and  _19
REMARK    6  A    between atoms: _19  and  _20
REMARK                            x       y       z     vdW  Elec       q    Type
REMARK                         _______ _______ _______ _____ _____    ______ ____
ROOT
ATOM      1  C   UNL     1     -14.570   4.227 -14.963  0.00  0.00    +0.338 C 
ATOM      2  N   UNL     1     -13.404   3.559 -15.158  0.00  0.00    -0.132 N 
ATOM      3  H   UNL     1     -12.966   2.885 -14.588  0.00  0.00    +0.323 HD
ATOM      4  N   UNL     1     -12.975   4.104 -16.434  0.00  0.00    -0.119 N 
ATOM      5  C   UNL     1     -12.331   3.451 -17.472  0.00  0.00    +0.069 C 
ATOM      6  C   UNL     1     -12.765   3.873 -18.684  0.00  0.00    +0.070 C 
ATOM      7  S   UNL     1     -14.076   5.069 -18.609  0.00  0.00    -0.045 S 
ATOM      8  C   UNL     1     -14.002   4.902 -16.865  0.00  0.00    +0.378 C 
ATOM      9  N   UNL     1     -14.988   5.024 -15.923  0.00  0.00    -0.031 NA
ENDROOT
BRANCH   1  10
ATOM     10  C   UNL     1     -15.334   4.020 -13.705  0.00  0.00    +0.067 A 
ATOM     11  C   UNL     1     -16.442   3.163 -13.722  0.00  0.00    +0.016 A 
ATOM     12  C   UNL     1     -17.184   2.937 -12.561  0.00  0.00    +0.001 A 
ATOM     13  C   UNL     1     -16.820   3.564 -11.370  0.00  0.00    +0.000 A 
ATOM     14  C   UNL     1     -15.718   4.418 -11.341  0.00  0.00    +0.001 A 
ATOM     15  C   UNL     1     -14.976   4.646 -12.505  0.00  0.00    +0.016 A 
ENDBRANCH   1  10
BRANCH   5  16
ATOM     16  C   UNL     1     -11.286   2.421 -17.169  0.00  0.00    +0.175 C 
BRANCH  16  17
ATOM     17  C   UNL     1     -11.835   1.015 -17.073  0.00  0.00    +0.313 C 
ATOM     18  O   UNL     1     -12.862   0.701 -16.481  0.00  0.00    -0.250 OA
BRANCH  17  19
ATOM     19  O   UNL     1     -11.046   0.139 -17.765  0.00  0.00    -0.465 OA
BRANCH  19  20
ATOM     20  C   UNL     1      -9.683   0.047 -17.334  0.00  0.00    +0.229 C 
ATOM     21  C   UNL     1      -9.586  -0.770 -16.061  0.00  0.00    +0.048 C 
ENDBRANCH  19  20
ENDBRANCH  17  19
ENDBRANCH  16  17
ENDBRANCH   5  16
TORSDOF 5
ENDMDL
MODEL 2
REMARK VINA RESULT:      -6.8      4.441      6.427
REMARK  Name = min_compound959.pdb
REMARK  6 active torsions:
REMARK  status: ('A' for Active; 'I' for Inactive)
REMARK    1  A    between atoms: _1  and  _12
REMARK    2  A    between atoms: _6  and  _18
REMARK    3  A    between atoms: _9  and  _11
REMARK    4  A    between atoms: _9  and  _18
REMARK    5  A    between atoms: _11  and  _19
REMARK    6  A    between atoms: _19  and  _20
REMARK                            x       y       z     vdW  Elec       q    Type
REMARK                         _______ _______ _______ _____ _____    ______ ____
ROOT
ATOM      1  C   UNL     1     -12.367   1.784 -18.209  0.00  0.00    +0.338 C 
ATOM      2  N   UNL     1     -12.734   1.538 -19.493  0.00  0.00    -0.132 N 
ATOM      3  H   UNL     1     -12.538   0.758 -20.061  0.00  0.00    +0.323 HD
ATOM      4  N   UNL     1     -13.495   2.735 -19.804  0.00  0.00    -0.119 N 
ATOM      5  C   UNL     1     -14.636   2.848 -20.582  0.00  0.00    +0.069 C 
ATOM      6  C   UNL     1     -15.506   3.755 -20.076  0.00  0.00    +0.070 C 
ATOM      7  S   UNL     1     -14.990   4.477 -18.538  0.00  0.00    -0.045 S 
ATOM      8  C   UNL     1     -13.579   3.441 -18.633  0.00  0.00    +0.378 C 
ATOM      9  N   UNL     1     -12.830   2.875 -17.637  0.00  0.00    -0.031 NA
ENDROOT
BRANCH   1  10
ATOM     10  C   UNL     1     -11.489   0.818 -17.498  0.00  0.00    +0.067 A 
ATOM     11  C   UNL     1     -10.100   0.942 -17.635  0.00  0.00    +0.016 A 
ATOM     12  C   UNL     1      -9.240   0.058 -16.980  0.00  0.00    +0.001 A 
ATOM     13  C   UNL     1      -9.762  -0.957 -16.179  0.00  0.00    +0.000 A 
ATOM     14  C   UNL     1     -11.143  -1.089 -16.035  0.00  0.00    +0.001 A 
ATOM     15  C   UNL     1     -12.006  -0.205 -16.693  0.00  0.00    +0.016 A 
ENDBRANCH   1  10
BRANCH   5  16
ATOM     16  C   UNL     1     -14.776   2.019 -21.821  0.00  0.00    +0.175 C 
BRANCH  16  17
ATOM     17  C   UNL     1     -13.616   2.167 -22.781  0.00  0.00    +0.313 C 
ATOM     18  O   UNL     1     -12.635   1.433 -22.813  0.00  0.00    -0.250 OA
BRANCH  17  19
ATOM     19  O   UNL     1     -13.821   3.217 -23.632  0.00  0.00    -0.465 OA
BRANCH  19  20
ATOM     20  C   UNL     1     -12.697   4.078 -23.849  0.00  0.00    +0.229 C 
ATOM     21  C   UNL     1     -12.517   5.018 -22.674  0.00  0.00    +0.048 C 
ENDBRANCH  19  20
ENDBRANCH  17  19
ENDBRANCH  16  17
ENDBRANCH   5  16
TORSDOF 5
ENDMDL
MODEL 3
REMARK VINA RESULT:      -6.7      4.238      5.863
REMARK  Name = min_compound959.pdb
REMARK  6 active torsions:
REMARK  status: ('A' for Active; 'I' for Inactive)
REMARK    1  A    between atoms: _1  and  _12
REMARK    2  A    between atoms: _6  and  _18
REMARK    3  A    between atoms: _9  and  _11
REMARK    4  A    between atoms: _9  and  _18
REMARK    5  A    between atoms: _11  and  _19
REMARK    6  A    between atoms: _19  and  _20
REMARK                            x       y       z     vdW  Elec       q    Type
REMARK                         _______ _______ _______ _____ _____    ______ ____
ROOT
ATOM      1  C   UNL     1     -12.497   1.790 -18.361  0.00  0.00    +0.338 C 
ATOM      2  N   UNL     1     -12.957   2.923 -17.770  0.00  0.00    -0.132 N 
ATOM      3  H   UNL     1     -12.763   3.285 -16.875  0.00  0.00    +0.323 HD
ATOM      4  N   UNL     1     -13.813   3.459 -18.813  0.00  0.00    -0.119 N 
ATOM      5  C   UNL     1     -14.014   4.786 -19.160  0.00  0.00    +0.069 C 
ATOM      6  C   UNL     1     -14.138   4.946 -20.500  0.00  0.00    +0.070 C 
ATOM      7  S   UNL     1     -13.933   3.449 -21.432  0.00  0.00    -0.045 S 
ATOM      8  C   UNL     1     -13.631   2.648 -19.902  0.00  0.00    +0.378 C 
ATOM      9  N   UNL     1     -12.843   1.567 -19.611  0.00  0.00    -0.031 NA
ENDROOT
BRANCH   1  10
ATOM     10  C   UNL     1     -11.616   0.869 -17.597  0.00  0.00    +0.067 A 
ATOM     11  C   UNL     1     -10.227   1.023 -17.704  0.00  0.00    +0.016 A 
ATOM     12  C   UNL     1      -9.363   0.182 -16.999  0.00  0.00    +0.001 A 
ATOM     13  C   UNL     1      -9.881  -0.818 -16.178  0.00  0.00    +0.000 A 
ATOM     14  C   UNL     1     -11.262  -0.979 -16.063  0.00  0.00    +0.001 A 
ATOM     15  C   UNL     1     -12.128  -0.138 -16.771  0.00  0.00    +0.016 A 
ENDBRANCH   1  10
BRANCH   5  16
ATOM     16  C   UNL     1     -14.077   5.833 -18.091  0.00  0.00    +0.175 C 
BRANCH  16  17
ATOM     17  C   UNL     1     -12.719   6.367 -17.690  0.00  0.00    +0.313 C 
ATOM     18  O   UNL     1     -12.227   7.412 -18.103  0.00  0.00    -0.250 OA
BRANCH  17  19
ATOM     19  O   UNL     1     -12.123   5.543 -16.777  0.00  0.00    -0.465 OA
BRANCH  19  20
ATOM     20  C   UNL     1     -10.714   5.342 -16.940  0.00  0.00    +0.229 C 
ATOM     21  C   UNL     1     -10.209   4.318 -15.944  0.00  0.00    +0.048 C 
ENDBRANCH  19  20
ENDBRANCH  17  19
ENDBRANCH  16  17
ENDBRANCH   5  16
TORSDOF 5
ENDMDL
MODEL 4
REMARK VINA RESULT:      -6.7      3.524      6.351
REMARK  Name = min_compound959.pdb
REMARK  6 active torsions:
REMARK  status: ('A' for Active; 'I' for Inactive)
REMARK    1  A    between atoms: _1  and  _12
REMARK    2  A    between atoms: _6  and  _18
REMARK    3  A    between atoms: _9  and  _11
REMARK    4  A    between atoms: _9  and  _18
REMARK    5  A    between atoms: _11  and  _19
REMARK    6  A    between atoms: _19  and  _20
REMARK                            x       y       z     vdW  Elec       q    Type
REMARK                         _______ _______ _______ _____ _____    ______ ____
ROOT
ATOM      1  C   UNL     1     -12.083   2.958 -16.789  0.00  0.00    +0.338 C 
ATOM      2  N   UNL     1     -11.523   4.094 -17.280  0.00  0.00    -0.132 N 
ATOM      3  H   UNL     1     -10.669   4.215 -17.755  0.00  0.00    +0.323 HD
ATOM      4  N   UNL     1     -12.523   5.083 -16.919  0.00  0.00    -0.119 N 
ATOM      5  C   UNL     1     -12.929   6.196 -17.639  0.00  0.00    +0.069 C 
ATOM      6  C   UNL     1     -14.261   6.415 -17.526  0.00  0.00    +0.070 C 
ATOM      7  S   UNL     1     -15.120   5.190 -16.569  0.00  0.00    -0.045 S 
ATOM      8  C   UNL     1     -13.575   4.378 -16.395  0.00  0.00    +0.378 C 
ATOM      9  N   UNL     1     -13.287   3.047 -16.264  0.00  0.00    -0.031 NA
ENDROOT
BRANCH   1  10
ATOM     10  C   UNL     1     -11.342   1.674 -16.881  0.00  0.00    +0.067 A 
ATOM     11  C   UNL     1     -11.990   0.493 -16.498  0.00  0.00    +0.016 A 
ATOM     12  C   UNL     1     -11.330  -0.736 -16.574  0.00  0.00    +0.001 A 
ATOM     13  C   UNL     1     -10.017  -0.794 -17.038  0.00  0.00    +0.000 A 
ATOM     14  C   UNL     1      -9.362   0.377 -17.423  0.00  0.00    +0.001 A 
ATOM     15  C   UNL     1     -10.022   1.608 -17.345  0.00  0.00    +0.016 A 
ENDBRANCH   1  10
BRANCH   5  16
ATOM     16  C   UNL     1     -11.919   6.991 -18.408  0.00  0.00    +0.175 C 
BRANCH  16  17
ATOM     17  C   UNL     1     -11.863   6.635 -19.877  0.00  0.00    +0.313 C 
ATOM     18  O   UNL     1     -12.471   5.706 -20.397  0.00  0.00    -0.250 OA
BRANCH  17  19
ATOM     19  O   UNL     1     -11.064   7.510 -20.558  0.00  0.00    -0.465 OA
BRANCH  19  20
ATOM     20  C   UNL     1     -11.147   7.454 -21.987  0.00  0.00    +0.229 C 
ATOM     21  C   UNL     1     -10.516   8.687 -22.602  0.00  0.00    +0.048 C 
ENDBRANCH  19  20
ENDBRANCH  17  19
ENDBRANCH  16  17
ENDBRANCH   5  16
TORSDOF 5
ENDMDL
MODEL 5
REMARK VINA RESULT:      -6.5      2.454      5.974
REMARK  Name = min_compound959.pdb
REMARK  6 active torsions:
REMARK  status: ('A' for Active; 'I' for Inactive)
REMARK    1  A    between atoms: _1  and  _12
REMARK    2  A    between atoms: _6  and  _18
REMARK    3  A    between atoms: _9  and  _11
REMARK    4  A    between atoms: _9  and  _18
REMARK    5  A    between atoms: _11  and  _19
REMARK    6  A    between atoms: _19  and  _20
REMARK                            x       y       z     vdW  Elec       q    Type
REMARK                         _______ _______ _______ _____ _____    ______ ____
ROOT
ATOM      1  C   UNL     1     -12.531   1.924 -17.907  0.00  0.00    +0.338 C 
ATOM      2  N   UNL     1     -13.021   2.880 -17.076  0.00  0.00    -0.132 N 
ATOM      3  H   UNL     1     -12.775   3.084 -16.145  0.00  0.00    +0.323 HD
ATOM      4  N   UNL     1     -14.006   3.520 -17.929  0.00  0.00    -0.119 N 
ATOM      5  C   UNL     1     -14.338   4.864 -17.997  0.00  0.00    +0.069 C 
ATOM      6  C   UNL     1     -14.594   5.259 -19.268  0.00  0.00    +0.070 C 
ATOM      7  S   UNL     1     -14.359   3.988 -20.485  0.00  0.00    -0.045 S 
ATOM      8  C   UNL     1     -13.860   2.946 -19.165  0.00  0.00    +0.378 C 
ATOM      9  N   UNL     1     -12.969   1.908 -19.148  0.00  0.00    -0.031 NA
ENDROOT
BRANCH   1  10
ATOM     10  C   UNL     1     -11.516   0.963 -17.404  0.00  0.00    +0.067 A 
ATOM     11  C   UNL     1     -11.947  -0.144 -16.660  0.00  0.00    +0.016 A 
ATOM     12  C   UNL     1     -11.026  -1.075 -16.173  0.00  0.00    +0.001 A 
ATOM     13  C   UNL     1      -9.666  -0.907 -16.428  0.00  0.00    +0.000 A 
ATOM     14  C   UNL     1      -9.226   0.191 -17.168  0.00  0.00    +0.001 A 
ATOM     15  C   UNL     1     -10.148   1.124 -17.655  0.00  0.00    +0.016 A 
ENDBRANCH   1  10
BRANCH   5  16
ATOM     16  C   UNL     1     -14.384   5.682 -16.744  0.00  0.00    +0.175 C 
BRANCH  16  17
ATOM     17  C   UNL     1     -15.430   5.214 -15.756  0.00  0.00    +0.313 C 
ATOM     18  O   UNL     1     -16.607   5.559 -15.764  0.00  0.00    -0.250 OA
BRANCH  17  19
ATOM     19  O   UNL     1     -14.894   4.326 -14.866  0.00  0.00    -0.465 OA
BRANCH  19  20
ATOM     20  C   UNL     1     -15.816   3.415 -14.255  0.00  0.00    +0.229 C 
ATOM     21  C   UNL     1     -15.963   2.166 -15.100  0.00  0.00    +0.048 C 
ENDBRANCH  19  20
ENDBRANCH  17  19
ENDBRANCH  16  17
ENDBRANCH   5  16
TORSDOF 5
ENDMDL
MODEL 6
REMARK VINA RESULT:      -6.5      6.697      9.562
REMARK  Name = min_compound959.pdb
REMARK  6 active torsions:
REMARK  status: ('A' for Active; 'I' for Inactive)
REMARK    1  A    between atoms: _1  and  _12
REMARK    2  A    between atoms: _6  and  _18
REMARK    3  A    between atoms: _9  and  _11
REMARK    4  A    between atoms: _9  and  _18
REMARK    5  A    between atoms: _11  and  _19
REMARK    6  A    between atoms: _19  and  _20
REMARK                            x       y       z     vdW  Elec       q    Type
REMARK                         _______ _______ _______ _____ _____    ______ ____
ROOT
ATOM      1  C   UNL     1     -16.786   3.428  -9.265  0.00  0.00    +0.338 C 
ATOM      2  N   UNL     1     -16.475   2.244  -8.676  0.00  0.00    -0.132 N 
ATOM      3  H   UNL     1     -15.989   1.471  -9.046  0.00  0.00    +0.323 HD
ATOM      4  N   UNL     1     -17.051   2.423  -7.356  0.00  0.00    -0.119 N 
ATOM      5  C   UNL     1     -16.556   1.984  -6.138  0.00  0.00    +0.069 C 
ATOM      6  C   UNL     1     -16.769   2.886  -5.150  0.00  0.00    +0.070 C 
ATOM      7  S   UNL     1     -17.537   4.392  -5.694  0.00  0.00    -0.045 S 
ATOM      8  C   UNL     1     -17.493   3.720  -7.313  0.00  0.00    +0.378 C 
ATOM      9  N   UNL     1     -17.376   4.343  -8.525  0.00  0.00    -0.031 NA
ENDROOT
BRANCH   1  10
ATOM     10  C   UNL     1     -16.436   3.654 -10.691  0.00  0.00    +0.067 A 
ATOM     11  C   UNL     1     -15.359   4.496 -10.995  0.00  0.00    +0.016 A 
ATOM     12  C   UNL     1     -14.993   4.731 -12.322  0.00  0.00    +0.001 A 
ATOM     13  C   UNL     1     -15.701   4.123 -13.357  0.00  0.00    +0.000 A 
ATOM     14  C   UNL     1     -16.775   3.281 -13.066  0.00  0.00    +0.001 A 
ATOM     15  C   UNL     1     -17.142   3.047 -11.737  0.00  0.00    +0.016 A 
ENDBRANCH   1  10
BRANCH   5  16
ATOM     16  C   UNL     1     -15.891   0.646  -6.045  0.00  0.00    +0.175 C 
BRANCH  16  17
ATOM     17  C   UNL     1     -14.406   0.689  -6.327  0.00  0.00    +0.313 C 
ATOM     18  O   UNL     1     -13.892   1.242  -7.294  0.00  0.00    -0.250 OA
BRANCH  17  19
ATOM     19  O   UNL     1     -13.705   0.054  -5.341  0.00  0.00    -0.465 OA
BRANCH  19  20
ATOM     20  C   UNL     1     -14.138   0.310  -4.000  0.00  0.00    +0.229 C 
ATOM     21  C   UNL     1     -13.448   1.541  -3.448  0.00  0.00    +0.048 C 
ENDBRANCH  19  20
ENDBRANCH  17  19
ENDBRANCH  16  17
ENDBRANCH   5  16
TORSDOF 5
ENDMDL
MODEL 7
REMARK VINA RESULT:      -6.4      2.144      6.138
REMARK  Name = min_compound959.pdb
REMARK  6 active torsions:
REMARK  status: ('A' for Active; 'I' for Inactive)
REMARK    1  A    between atoms: _1  and  _12
REMARK    2  A    between atoms: _6  and  _18
REMARK    3  A    between atoms: _9  and  _11
REMARK    4  A    between atoms: _9  and  _18
REMARK    5  A    between atoms: _11  and  _19
REMARK    6  A    between atoms: _19  and  _20
REMARK                            x       y       z     vdW  Elec       q    Type
REMARK                         _______ _______ _______ _____ _____    ______ ____
ROOT
ATOM      1  C   UNL     1     -12.038   2.769 -17.388  0.00  0.00    +0.338 C 
ATOM      2  N   UNL     1     -13.350   2.841 -17.047  0.00  0.00    -0.132 N 
ATOM      3  H   UNL     1     -13.922   2.164 -16.618  0.00  0.00    +0.323 HD
ATOM      4  N   UNL     1     -13.684   4.184 -17.484  0.00  0.00    -0.119 N 
ATOM      5  C   UNL     1     -14.537   5.096 -16.882  0.00  0.00    +0.069 C 
ATOM      6  C   UNL     1     -14.071   6.364 -16.975  0.00  0.00    +0.070 C 
ATOM      7  S   UNL     1     -12.484   6.499 -17.758  0.00  0.00    -0.045 S 
ATOM      8  C   UNL     1     -12.504   4.751 -17.891  0.00  0.00    +0.378 C 
ATOM      9  N   UNL     1     -11.473   3.852 -17.880  0.00  0.00    -0.031 NA
ENDROOT
BRANCH   1  10
ATOM     10  C   UNL     1     -11.291   1.502 -17.177  0.00  0.00    +0.067 A 
ATOM     11  C   UNL     1     -11.968   0.405 -16.627  0.00  0.00    +0.016 A 
ATOM     12  C   UNL     1     -11.305  -0.806 -16.416  0.00  0.00    +0.001 A 
ATOM     13  C   UNL     1      -9.959  -0.931 -16.757  0.00  0.00    +0.000 A 
ATOM     14  C   UNL     1      -9.276   0.154 -17.306  0.00  0.00    +0.001 A 
ATOM     15  C   UNL     1      -9.939   1.368 -17.516  0.00  0.00    +0.016 A 
ENDBRANCH   1  10
BRANCH   5  16
ATOM     16  C   UNL     1     -15.804   4.617 -16.241  0.00  0.00    +0.175 C 
BRANCH  16  17
ATOM     17  C   UNL     1     -15.616   4.136 -14.819  0.00  0.00    +0.313 C 
ATOM     18  O   UNL     1     -14.531   3.940 -14.282  0.00  0.00    -0.250 OA
BRANCH  17  19
ATOM     19  O   UNL     1     -16.823   3.978 -14.197  0.00  0.00    -0.465 OA
BRANCH  19  20
ATOM     20  C   UNL     1     -16.980   2.780 -13.427  0.00  0.00    +0.229 C 
ATOM     21  C   UNL     1     -17.299   3.118 -11.985  0.00  0.00    +0.048 C 
ENDBRANCH  19  20
ENDBRANCH  17  19
ENDBRANCH  16  17
ENDBRANCH   5  16
TORSDOF 5
ENDMDL
MODEL 8
REMARK VINA RESULT:      -6.4      4.239      6.707
REMARK  Name = min_compound959.pdb
REMARK  6 active torsions:
REMARK  status: ('A' for Active; 'I' for Inactive)
REMARK    1  A    between atoms: _1  and  _12
REMARK    2  A    between atoms: _6  and  _18
REMARK    3  A    between atoms: _9  and  _11
REMARK    4  A    between atoms: _9  and  _18
REMARK    5  A    between atoms: _11  and  _19
REMARK    6  A    between atoms: _19  and  _20
REMARK                            x       y       z     vdW  Elec       q    Type
REMARK                         _______ _______ _______ _____ _____    ______ ____
ROOT
ATOM      1  C   UNL     1     -12.378   1.910 -18.102  0.00  0.00    +0.338 C 
ATOM      2  N   UNL     1     -12.743   3.024 -17.415  0.00  0.00    -0.132 N 
ATOM      3  H   UNL     1     -12.444   3.340 -16.532  0.00  0.00    +0.323 HD
ATOM      4  N   UNL     1     -13.694   3.624 -18.334  0.00  0.00    -0.119 N 
ATOM      5  C   UNL     1     -13.898   4.969 -18.599  0.00  0.00    +0.069 C 
ATOM      6  C   UNL     1     -14.163   5.193 -19.908  0.00  0.00    +0.070 C 
ATOM      7  S   UNL     1     -14.097   3.737 -20.922  0.00  0.00    -0.045 S 
ATOM      8  C   UNL     1     -13.650   2.860 -19.471  0.00  0.00    +0.378 C 
ATOM      9  N   UNL     1     -12.862   1.752 -19.315  0.00  0.00    -0.031 NA
ENDROOT
BRANCH   1  10
ATOM     10  C   UNL     1     -11.441   0.938 -17.481  0.00  0.00    +0.067 A 
ATOM     11  C   UNL     1     -11.968  -0.116 -16.724  0.00  0.00    +0.016 A 
ATOM     12  C   UNL     1     -11.123  -1.055 -16.127  0.00  0.00    +0.001 A 
ATOM     13  C   UNL     1      -9.742  -0.947 -16.285  0.00  0.00    +0.000 A 
ATOM     14  C   UNL     1      -9.207   0.098 -17.037  0.00  0.00    +0.001 A 
ATOM     15  C   UNL     1     -10.053   1.039 -17.634  0.00  0.00    +0.016 A 
ENDBRANCH   1  10
BRANCH   5  16
ATOM     16  C   UNL     1     -13.819   5.966 -17.484  0.00  0.00    +0.175 C 
BRANCH  16  17
ATOM     17  C   UNL     1     -13.031   7.207 -17.840  0.00  0.00    +0.313 C 
ATOM     18  O   UNL     1     -11.839   7.223 -18.127  0.00  0.00    -0.250 OA
BRANCH  17  19
ATOM     19  O   UNL     1     -13.835   8.313 -17.830  0.00  0.00    -0.465 OA
BRANCH  19  20
ATOM     20  C   UNL     1     -15.088   8.170 -17.151  0.00  0.00    +0.229 C 
ATOM     21  C   UNL     1     -16.153   9.012 -17.826  0.00  0.00    +0.048 C 
ENDBRANCH  19  20
ENDBRANCH  17  19
ENDBRANCH  16  17
ENDBRANCH   5  16
TORSDOF 5
ENDMDL
MODEL 9
REMARK VINA RESULT:      -6.1      5.176      7.476
REMARK  Name = min_compound959.pdb
REMARK  6 active torsions:
REMARK  status: ('A' for Active; 'I' for Inactive)
REMARK    1  A    between atoms: _1  and  _12
REMARK    2  A    between atoms: _6  and  _18
REMARK    3  A    between atoms: _9  and  _11
REMARK    4  A    between atoms: _9  and  _18
REMARK    5  A    between atoms: _11  and  _19
REMARK    6  A    between atoms: _19  and  _20
REMARK                            x       y       z     vdW  Elec       q    Type
REMARK                         _______ _______ _______ _____ _____    ______ ____
ROOT
ATOM      1  C   UNL     1     -16.487   2.098  -8.601  0.00  0.00    +0.338 C 
ATOM      2  N   UNL     1     -15.661   2.966  -9.241  0.00  0.00    -0.132 N 
ATOM      3  H   UNL     1     -14.678   2.960  -9.307  0.00  0.00    +0.323 HD
ATOM      4  N   UNL     1     -16.615   3.906  -9.800  0.00  0.00    -0.119 N 
ATOM      5  C   UNL     1     -16.561   4.558 -11.022  0.00  0.00    +0.069 C 
ATOM      6  C   UNL     1     -17.785   4.666 -11.593  0.00  0.00    +0.070 C 
ATOM      7  S   UNL     1     -19.088   3.886 -10.672  0.00  0.00    -0.045 S 
ATOM      8  C   UNL     1     -17.854   3.389  -9.529  0.00  0.00    +0.378 C 
ATOM      9  N   UNL     1     -17.784   2.278  -8.733  0.00  0.00    -0.031 NA
ENDROOT
BRANCH   1  10
ATOM     10  C   UNL     1     -15.909   0.980  -7.811  0.00  0.00    +0.067 A 
ATOM     11  C   UNL     1     -14.714   1.196  -7.112  0.00  0.00    +0.016 A 
ATOM     12  C   UNL     1     -14.140   0.174  -6.352  0.00  0.00    +0.001 A 
ATOM     13  C   UNL     1     -14.760  -1.073  -6.283  0.00  0.00    +0.000 A 
ATOM     14  C   UNL     1     -15.950  -1.298  -6.974  0.00  0.00    +0.001 A 
ATOM     15  C   UNL     1     -16.524  -0.275  -7.736  0.00  0.00    +0.016 A 
ENDBRANCH   1  10
BRANCH   5  16
ATOM     16  C   UNL     1     -15.247   5.048 -11.546  0.00  0.00    +0.175 C 
BRANCH  16  17
ATOM     17  C   UNL     1     -15.213   5.192 -13.052  0.00  0.00    +0.313 C 
ATOM     18  O   UNL     1     -15.547   6.198 -13.668  0.00  0.00    -0.250 OA
BRANCH  17  19
ATOM     19  O   UNL     1     -14.729   4.056 -13.637  0.00  0.00    -0.465 OA
BRANCH  19  20
ATOM     20  C   UNL     1     -15.470   3.563 -14.759  0.00  0.00    +0.229 C 
ATOM     21  C   UNL     1     -16.454   2.498 -14.315  0.00  0.00    +0.048 C 
ENDBRANCH  19  20
ENDBRANCH  17  19
ENDBRANCH  16  17
ENDBRANCH   5  16
TORSDOF 5
ENDMDL
