MODEL 1
REMARK VINA RESULT:      -7.5      0.000      0.000
REMARK  Name = min_compound935.pdb
REMARK  4 active torsions:
REMARK  status: ('A' for Active; 'I' for Inactive)
REMARK    1  A    between atoms: _1  and  _7
REMARK    2  A    between atoms: _5  and  _19
REMARK    3  A    between atoms: _8  and  _18
REMARK    4  A    between atoms: _9  and  _20
REMARK                            x       y       z     vdW  Elec       q    Type
REMARK                         _______ _______ _______ _____ _____    ______ ____
ROOT
ATOM      1  C   UNL     1     -12.370   2.913 -17.651  0.00  0.00    +0.042 A 
ATOM      2  C   UNL     1     -11.735   1.780 -17.079  0.00  0.00    -0.006 A 
ATOM      3  C   UNL     1     -12.058   0.439 -17.399  0.00  0.00    +0.009 A 
ATOM      4  C   UNL     1     -11.395  -0.636 -16.800  0.00  0.00    +0.001 A 
ATOM      5  C   UNL     1     -10.398  -0.400 -15.864  0.00  0.00    +0.001 A 
ATOM      6  C   UNL     1     -10.067   0.910 -15.519  0.00  0.00    +0.008 A 
ATOM      7  C   UNL     1     -10.724   2.002 -16.110  0.00  0.00    -0.017 A 
ATOM      8  C   UNL     1     -10.384   3.313 -15.740  0.00  0.00    +0.012 A 
ATOM      9  C   UNL     1     -11.019   4.413 -16.316  0.00  0.00    +0.046 A 
ATOM     10  C   UNL     1     -12.004   4.213 -17.275  0.00  0.00    +0.126 A 
ENDROOT
BRANCH   1  12
ATOM     11  N   UNL     1     -13.257   3.176 -19.888  0.00  0.00    -0.251 NA
ATOM     12  C   UNL     1     -13.406   2.725 -18.685  0.00  0.00    +0.123 C 
BRANCH  11  13
ATOM     13  C   UNL     1     -14.299   2.923 -20.799  0.00  0.00    +0.105 A 
ATOM     14  C   UNL     1     -15.412   3.771 -20.756  0.00  0.00    +0.031 A 
ATOM     15  C   UNL     1     -16.503   3.568 -21.605  0.00  0.00    +0.002 A 
ATOM     16  C   UNL     1     -16.495   2.504 -22.504  0.00  0.00    +0.004 A 
ATOM     17  C   UNL     1     -15.401   1.639 -22.554  0.00  0.00    +0.047 A 
ATOM     18  C   UNL     1     -14.313   1.847 -21.702  0.00  0.00    +0.142 A 
BRANCH  18  19
ATOM     19  O   UNL     1     -13.244   0.988 -21.755  0.00  0.00    -0.505 OA
ATOM     20  H   UNL     1     -12.534   1.420 -22.257  0.00  0.00    +0.292 HD
ENDBRANCH  18  19
ENDBRANCH  11  13
ENDBRANCH   1  12
BRANCH  10  21
ATOM     21  O   UNL     1     -12.568   5.299 -17.885  0.00  0.00    -0.506 OA
ATOM     22  H   UNL     1     -12.566   5.161 -18.845  0.00  0.00    +0.292 HD
ENDBRANCH  10  21
TORSDOF 4
ENDMDL
MODEL 2
REMARK VINA RESULT:      -7.4      3.789      6.307
REMARK  Name = min_compound935.pdb
REMARK  4 active torsions:
REMARK  status: ('A' for Active; 'I' for Inactive)
REMARK    1  A    between atoms: _1  and  _7
REMARK    2  A    between atoms: _5  and  _19
REMARK    3  A    between atoms: _8  and  _18
REMARK    4  A    between atoms: _9  and  _20
REMARK                            x       y       z     vdW  Elec       q    Type
REMARK                         _______ _______ _______ _____ _____    ______ ____
ROOT
ATOM      1  C   UNL     1     -14.397   3.640 -16.327  0.00  0.00    +0.042 A 
ATOM      2  C   UNL     1     -14.242   4.974 -16.787  0.00  0.00    -0.006 A 
ATOM      3  C   UNL     1     -13.007   5.543 -17.184  0.00  0.00    +0.009 A 
ATOM      4  C   UNL     1     -12.920   6.864 -17.628  0.00  0.00    +0.001 A 
ATOM      5  C   UNL     1     -14.061   7.653 -17.684  0.00  0.00    +0.001 A 
ATOM      6  C   UNL     1     -15.290   7.125 -17.288  0.00  0.00    +0.008 A 
ATOM      7  C   UNL     1     -15.395   5.799 -16.837  0.00  0.00    -0.017 A 
ATOM      8  C   UNL     1     -16.639   5.290 -16.432  0.00  0.00    +0.012 A 
ATOM      9  C   UNL     1     -16.769   3.974 -15.985  0.00  0.00    +0.046 A 
ATOM     10  C   UNL     1     -15.652   3.150 -15.940  0.00  0.00    +0.126 A 
ENDROOT
BRANCH   1  12
ATOM     11  N   UNL     1     -13.107   1.746 -17.108  0.00  0.00    -0.251 NA
ATOM     12  C   UNL     1     -13.227   2.741 -16.289  0.00  0.00    +0.123 C 
BRANCH  11  13
ATOM     13  C   UNL     1     -11.943   0.965 -16.996  0.00  0.00    +0.105 A 
ATOM     14  C   UNL     1     -10.734   1.549 -17.390  0.00  0.00    +0.031 A 
ATOM     15  C   UNL     1      -9.537   0.831 -17.341  0.00  0.00    +0.002 A 
ATOM     16  C   UNL     1      -9.538  -0.491 -16.902  0.00  0.00    +0.004 A 
ATOM     17  C   UNL     1     -10.734  -1.098 -16.516  0.00  0.00    +0.047 A 
ATOM     18  C   UNL     1     -11.929  -0.374 -16.569  0.00  0.00    +0.142 A 
BRANCH  18  19
ATOM     19  O   UNL     1     -13.100  -0.981 -16.192  0.00  0.00    -0.505 OA
ATOM     20  H   UNL     1     -13.252  -0.788 -15.253  0.00  0.00    +0.292 HD
ENDBRANCH  18  19
ENDBRANCH  11  13
ENDBRANCH   1  12
BRANCH  10  21
ATOM     21  O   UNL     1     -15.805   1.844 -15.570  0.00  0.00    -0.506 OA
ATOM     22  H   UNL     1     -15.529   1.741 -14.645  0.00  0.00    +0.292 HD
ENDBRANCH  10  21
TORSDOF 4
ENDMDL
MODEL 3
REMARK VINA RESULT:      -7.3     15.568     17.517
REMARK  Name = min_compound935.pdb
REMARK  4 active torsions:
REMARK  status: ('A' for Active; 'I' for Inactive)
REMARK    1  A    between atoms: _1  and  _7
REMARK    2  A    between atoms: _5  and  _19
REMARK    3  A    between atoms: _8  and  _18
REMARK    4  A    between atoms: _9  and  _20
REMARK                            x       y       z     vdW  Elec       q    Type
REMARK                         _______ _______ _______ _____ _____    ______ ____
ROOT
ATOM      1  C   UNL     1     -15.905  -1.026  -3.554  0.00  0.00    +0.042 A 
ATOM      2  C   UNL     1     -15.160   0.183  -3.570  0.00  0.00    -0.006 A 
ATOM      3  C   UNL     1     -13.787   0.277  -3.240  0.00  0.00    +0.009 A 
ATOM      4  C   UNL     1     -13.109   1.498  -3.275  0.00  0.00    +0.001 A 
ATOM      5  C   UNL     1     -13.784   2.656  -3.637  0.00  0.00    +0.001 A 
ATOM      6  C   UNL     1     -15.141   2.596  -3.955  0.00  0.00    +0.008 A 
ATOM      7  C   UNL     1     -15.838   1.377  -3.923  0.00  0.00    -0.017 A 
ATOM      8  C   UNL     1     -17.206   1.341  -4.236  0.00  0.00    +0.012 A 
ATOM      9  C   UNL     1     -17.919   0.141  -4.215  0.00  0.00    +0.046 A 
ATOM     10  C   UNL     1     -17.267  -1.040  -3.882  0.00  0.00    +0.126 A 
ENDROOT
BRANCH   1  12
ATOM     11  N   UNL     1     -15.406  -2.882  -2.083  0.00  0.00    -0.251 NA
ATOM     12  C   UNL     1     -15.230  -2.295  -3.222  0.00  0.00    +0.123 C 
BRANCH  11  13
ATOM     13  C   UNL     1     -14.728  -4.098  -1.879  0.00  0.00    +0.105 A 
ATOM     14  C   UNL     1     -15.399  -5.277  -2.225  0.00  0.00    +0.031 A 
ATOM     15  C   UNL     1     -14.808  -6.526  -2.025  0.00  0.00    +0.002 A 
ATOM     16  C   UNL     1     -13.535  -6.611  -1.466  0.00  0.00    +0.004 A 
ATOM     17  C   UNL     1     -12.853  -5.449  -1.101  0.00  0.00    +0.047 A 
ATOM     18  C   UNL     1     -13.450  -4.201  -1.303  0.00  0.00    +0.142 A 
BRANCH  18  19
ATOM     19  O   UNL     1     -12.774  -3.065  -0.937  0.00  0.00    -0.505 OA
ATOM     20  H   UNL     1     -12.205  -3.282  -0.181  0.00  0.00    +0.292 HD
ENDBRANCH  18  19
ENDBRANCH  11  13
ENDBRANCH   1  12
BRANCH  10  21
ATOM     21  O   UNL     1     -17.959  -2.217  -3.937  0.00  0.00    -0.506 OA
ATOM     22  H   UNL     1     -18.120  -2.533  -3.034  0.00  0.00    +0.292 HD
ENDBRANCH  10  21
TORSDOF 4
ENDMDL
MODEL 4
REMARK VINA RESULT:      -7.2      3.419      6.081
REMARK  Name = min_compound935.pdb
REMARK  4 active torsions:
REMARK  status: ('A' for Active; 'I' for Inactive)
REMARK    1  A    between atoms: _1  and  _7
REMARK    2  A    between atoms: _5  and  _19
REMARK    3  A    between atoms: _8  and  _18
REMARK    4  A    between atoms: _9  and  _20
REMARK                            x       y       z     vdW  Elec       q    Type
REMARK                         _______ _______ _______ _____ _____    ______ ____
ROOT
ATOM      1  C   UNL     1     -14.165   4.354 -16.166  0.00  0.00    +0.042 A 
ATOM      2  C   UNL     1     -14.728   4.804 -14.943  0.00  0.00    -0.006 A 
ATOM      3  C   UNL     1     -14.619   4.111 -13.713  0.00  0.00    +0.009 A 
ATOM      4  C   UNL     1     -15.197   4.605 -12.541  0.00  0.00    +0.001 A 
ATOM      5  C   UNL     1     -15.901   5.801 -12.567  0.00  0.00    +0.001 A 
ATOM      6  C   UNL     1     -16.036   6.500 -13.767  0.00  0.00    +0.008 A 
ATOM      7  C   UNL     1     -15.463   6.017 -14.954  0.00  0.00    -0.017 A 
ATOM      8  C   UNL     1     -15.621   6.729 -16.153  0.00  0.00    +0.012 A 
ATOM      9  C   UNL     1     -15.057   6.271 -17.345  0.00  0.00    +0.046 A 
ATOM     10  C   UNL     1     -14.325   5.090 -17.348  0.00  0.00    +0.126 A 
ENDROOT
BRANCH   1  12
ATOM     11  N   UNL     1     -12.197   3.067 -16.740  0.00  0.00    -0.251 NA
ATOM     12  C   UNL     1     -13.367   3.113 -16.190  0.00  0.00    +0.123 C 
BRANCH  11  13
ATOM     13  C   UNL     1     -11.516   1.837 -16.689  0.00  0.00    +0.105 A 
ATOM     14  C   UNL     1     -10.730   1.582 -15.560  0.00  0.00    +0.031 A 
ATOM     15  C   UNL     1      -9.997   0.399 -15.445  0.00  0.00    +0.002 A 
ATOM     16  C   UNL     1     -10.036  -0.544 -16.470  0.00  0.00    +0.004 A 
ATOM     17  C   UNL     1     -10.803  -0.305 -17.612  0.00  0.00    +0.047 A 
ATOM     18  C   UNL     1     -11.533   0.882 -17.720  0.00  0.00    +0.142 A 
BRANCH  18  19
ATOM     19  O   UNL     1     -12.281   1.111 -18.848  0.00  0.00    -0.505 OA
ATOM     20  H   UNL     1     -12.722   1.969 -18.749  0.00  0.00    +0.292 HD
ENDBRANCH  18  19
ENDBRANCH  11  13
ENDBRANCH   1  12
BRANCH  10  21
ATOM     21  O   UNL     1     -13.717   4.690 -18.505  0.00  0.00    -0.506 OA
ATOM     22  H   UNL     1     -13.934   3.759 -18.673  0.00  0.00    +0.292 HD
ENDBRANCH  10  21
TORSDOF 4
ENDMDL
MODEL 5
REMARK VINA RESULT:      -6.9      4.578      6.819
REMARK  Name = min_compound935.pdb
REMARK  4 active torsions:
REMARK  status: ('A' for Active; 'I' for Inactive)
REMARK    1  A    between atoms: _1  and  _7
REMARK    2  A    between atoms: _5  and  _19
REMARK    3  A    between atoms: _8  and  _18
REMARK    4  A    between atoms: _9  and  _20
REMARK                            x       y       z     vdW  Elec       q    Type
REMARK                         _______ _______ _______ _____ _____    ______ ____
ROOT
ATOM      1  C   UNL     1     -15.181   4.758 -14.884  0.00  0.00    +0.042 A 
ATOM      2  C   UNL     1     -15.537   5.007 -13.532  0.00  0.00    -0.006 A 
ATOM      3  C   UNL     1     -15.130   4.202 -12.440  0.00  0.00    +0.009 A 
ATOM      4  C   UNL     1     -15.514   4.499 -11.130  0.00  0.00    +0.001 A 
ATOM      5  C   UNL     1     -16.317   5.603 -10.877  0.00  0.00    +0.001 A 
ATOM      6  C   UNL     1     -16.744   6.407 -11.934  0.00  0.00    +0.008 A 
ATOM      7  C   UNL     1     -16.368   6.122 -13.257  0.00  0.00    -0.017 A 
ATOM      8  C   UNL     1     -16.818   6.937 -14.308  0.00  0.00    +0.012 A 
ATOM      9  C   UNL     1     -16.455   6.676 -15.629  0.00  0.00    +0.046 A 
ATOM     10  C   UNL     1     -15.632   5.594 -15.915  0.00  0.00    +0.126 A 
ENDROOT
BRANCH   1  12
ATOM     11  N   UNL     1     -13.092   3.809 -15.654  0.00  0.00    -0.251 NA
ATOM     12  C   UNL     1     -14.292   3.626 -15.208  0.00  0.00    +0.123 C 
BRANCH  11  13
ATOM     13  C   UNL     1     -12.325   2.658 -15.913  0.00  0.00    +0.105 A 
ATOM     14  C   UNL     1     -13.001   1.520 -16.365  0.00  0.00    +0.031 A 
ATOM     15  C   UNL     1     -12.318   0.328 -16.615  0.00  0.00    +0.002 A 
ATOM     16  C   UNL     1     -10.943   0.259 -16.404  0.00  0.00    +0.004 A 
ATOM     17  C   UNL     1     -10.249   1.378 -15.940  0.00  0.00    +0.047 A 
ATOM     18  C   UNL     1     -10.940   2.568 -15.692  0.00  0.00    +0.142 A 
BRANCH  18  19
ATOM     19  O   UNL     1     -10.250   3.661 -15.232  0.00  0.00    -0.505 OA
ATOM     20  H   UNL     1      -9.462   3.345 -14.760  0.00  0.00    +0.292 HD
ENDBRANCH  18  19
ENDBRANCH  11  13
ENDBRANCH   1  12
BRANCH  10  21
ATOM     21  O   UNL     1     -15.224   5.392 -17.203  0.00  0.00    -0.506 OA
ATOM     22  H   UNL     1     -15.637   4.583 -17.545  0.00  0.00    +0.292 HD
ENDBRANCH  10  21
TORSDOF 4
ENDMDL
MODEL 6
REMARK VINA RESULT:      -6.7      4.679      6.546
REMARK  Name = min_compound935.pdb
REMARK  4 active torsions:
REMARK  status: ('A' for Active; 'I' for Inactive)
REMARK    1  A    between atoms: _1  and  _7
REMARK    2  A    between atoms: _5  and  _19
REMARK    3  A    between atoms: _8  and  _18
REMARK    4  A    between atoms: _9  and  _20
REMARK                            x       y       z     vdW  Elec       q    Type
REMARK                         _______ _______ _______ _____ _____    ______ ____
ROOT
ATOM      1  C   UNL     1     -13.516   4.385 -15.914  0.00  0.00    +0.042 A 
ATOM      2  C   UNL     1     -12.353   3.605 -16.147  0.00  0.00    -0.006 A 
ATOM      3  C   UNL     1     -12.018   2.436 -15.421  0.00  0.00    +0.009 A 
ATOM      4  C   UNL     1     -10.857   1.711 -15.698  0.00  0.00    +0.001 A 
ATOM      5  C   UNL     1      -9.998   2.135 -16.703  0.00  0.00    +0.001 A 
ATOM      6  C   UNL     1     -10.294   3.290 -17.427  0.00  0.00    +0.008 A 
ATOM      7  C   UNL     1     -11.457   4.033 -17.160  0.00  0.00    -0.017 A 
ATOM      8  C   UNL     1     -11.731   5.198 -17.892  0.00  0.00    +0.012 A 
ATOM      9  C   UNL     1     -12.881   5.950 -17.648  0.00  0.00    +0.046 A 
ATOM     10  C   UNL     1     -13.775   5.539 -16.667  0.00  0.00    +0.126 A 
ENDROOT
BRANCH   1  12
ATOM     11  N   UNL     1     -14.766   4.697 -13.865  0.00  0.00    -0.251 NA
ATOM     12  C   UNL     1     -14.488   3.958 -14.890  0.00  0.00    +0.123 C 
BRANCH  11  13
ATOM     13  C   UNL     1     -15.723   4.200 -12.961  0.00  0.00    +0.105 A 
ATOM     14  C   UNL     1     -16.862   3.591 -13.498  0.00  0.00    +0.031 A 
ATOM     15  C   UNL     1     -17.874   3.101 -12.669  0.00  0.00    +0.002 A 
ATOM     16  C   UNL     1     -17.760   3.223 -11.286  0.00  0.00    +0.004 A 
ATOM     17  C   UNL     1     -16.638   3.839 -10.729  0.00  0.00    +0.047 A 
ATOM     18  C   UNL     1     -15.629   4.329 -11.564  0.00  0.00    +0.142 A 
BRANCH  18  19
ATOM     19  O   UNL     1     -14.532   4.937 -11.008  0.00  0.00    -0.505 OA
ATOM     20  H   UNL     1     -14.074   4.285 -10.453  0.00  0.00    +0.292 HD
ENDBRANCH  18  19
ENDBRANCH  11  13
ENDBRANCH   1  12
BRANCH  10  21
ATOM     21  O   UNL     1     -14.933   6.242 -16.488  0.00  0.00    -0.506 OA
ATOM     22  H   UNL     1     -15.636   5.632 -16.214  0.00  0.00    +0.292 HD
ENDBRANCH  10  21
TORSDOF 4
ENDMDL
MODEL 7
REMARK VINA RESULT:      -6.7     10.684     12.298
REMARK  Name = min_compound935.pdb
REMARK  4 active torsions:
REMARK  status: ('A' for Active; 'I' for Inactive)
REMARK    1  A    between atoms: _1  and  _7
REMARK    2  A    between atoms: _5  and  _19
REMARK    3  A    between atoms: _8  and  _18
REMARK    4  A    between atoms: _9  and  _20
REMARK                            x       y       z     vdW  Elec       q    Type
REMARK                         _______ _______ _______ _____ _____    ______ ____
ROOT
ATOM      1  C   UNL     1     -15.690   1.077  -6.714  0.00  0.00    +0.042 A 
ATOM      2  C   UNL     1     -14.931   1.178  -5.519  0.00  0.00    -0.006 A 
ATOM      3  C   UNL     1     -14.637   2.398  -4.862  0.00  0.00    +0.009 A 
ATOM      4  C   UNL     1     -13.883   2.432  -3.686  0.00  0.00    +0.001 A 
ATOM      5  C   UNL     1     -13.400   1.252  -3.138  0.00  0.00    +0.001 A 
ATOM      6  C   UNL     1     -13.662   0.036  -3.770  0.00  0.00    +0.008 A 
ATOM      7  C   UNL     1     -14.417  -0.017  -4.953  0.00  0.00    -0.017 A 
ATOM      8  C   UNL     1     -14.660  -1.249  -5.579  0.00  0.00    +0.012 A 
ATOM      9  C   UNL     1     -15.410  -1.327  -6.753  0.00  0.00    +0.046 A 
ATOM     10  C   UNL     1     -15.930  -0.167  -7.314  0.00  0.00    +0.126 A 
ENDROOT
BRANCH   1  12
ATOM     11  N   UNL     1     -15.993   2.647  -8.531  0.00  0.00    -0.251 NA
ATOM     12  C   UNL     1     -16.268   2.293  -7.317  0.00  0.00    +0.123 C 
BRANCH  11  13
ATOM     13  C   UNL     1     -16.615   3.814  -9.011  0.00  0.00    +0.105 A 
ATOM     14  C   UNL     1     -17.830   4.186  -8.424  0.00  0.00    +0.031 A 
ATOM     15  C   UNL     1     -18.527   5.313  -8.865  0.00  0.00    +0.002 A 
ATOM     16  C   UNL     1     -18.017   6.080  -9.910  0.00  0.00    +0.004 A 
ATOM     17  C   UNL     1     -16.814   5.720 -10.519  0.00  0.00    +0.047 A 
ATOM     18  C   UNL     1     -16.122   4.590 -10.074  0.00  0.00    +0.142 A 
BRANCH  18  19
ATOM     19  O   UNL     1     -14.942   4.242 -10.682  0.00  0.00    -0.505 OA
ATOM     20  H   UNL     1     -14.298   4.023  -9.990  0.00  0.00    +0.292 HD
ENDBRANCH  18  19
ENDBRANCH  11  13
ENDBRANCH   1  12
BRANCH  10  21
ATOM     21  O   UNL     1     -16.724  -0.264  -8.422  0.00  0.00    -0.506 OA
ATOM     22  H   UNL     1     -16.192  -0.077  -9.211  0.00  0.00    +0.292 HD
ENDBRANCH  10  21
TORSDOF 4
ENDMDL
MODEL 8
REMARK VINA RESULT:      -6.6      9.632     11.999
REMARK  Name = min_compound935.pdb
REMARK  4 active torsions:
REMARK  status: ('A' for Active; 'I' for Inactive)
REMARK    1  A    between atoms: _1  and  _7
REMARK    2  A    between atoms: _5  and  _19
REMARK    3  A    between atoms: _8  and  _18
REMARK    4  A    between atoms: _9  and  _20
REMARK                            x       y       z     vdW  Elec       q    Type
REMARK                         _______ _______ _______ _____ _____    ______ ____
ROOT
ATOM      1  C   UNL     1     -17.405   3.163  -9.642  0.00  0.00    +0.042 A 
ATOM      2  C   UNL     1     -16.776   3.961 -10.634  0.00  0.00    -0.006 A 
ATOM      3  C   UNL     1     -15.380   4.181 -10.712  0.00  0.00    +0.009 A 
ATOM      4  C   UNL     1     -14.820   4.977 -11.714  0.00  0.00    +0.001 A 
ATOM      5  C   UNL     1     -15.639   5.578 -12.661  0.00  0.00    +0.001 A 
ATOM      6  C   UNL     1     -17.020   5.389 -12.602  0.00  0.00    +0.008 A 
ATOM      7  C   UNL     1     -17.599   4.593 -11.601  0.00  0.00    -0.017 A 
ATOM      8  C   UNL     1     -18.992   4.425 -11.553  0.00  0.00    +0.012 A 
ATOM      9  C   UNL     1     -19.590   3.636 -10.570  0.00  0.00    +0.046 A 
ATOM     10  C   UNL     1     -18.797   3.001  -9.623  0.00  0.00    +0.126 A 
ENDROOT
BRANCH   1  12
ATOM     11  N   UNL     1     -16.632   1.180  -8.491  0.00  0.00    -0.251 NA
ATOM     12  C   UNL     1     -16.582   2.464  -8.637  0.00  0.00    +0.123 C 
BRANCH  11  13
ATOM     13  C   UNL     1     -15.790   0.615  -7.516  0.00  0.00    +0.105 A 
ATOM     14  C   UNL     1     -14.837   1.452  -6.924  0.00  0.00    +0.031 A 
ATOM     15  C   UNL     1     -13.942   0.962  -5.971  0.00  0.00    +0.002 A 
ATOM     16  C   UNL     1     -13.985  -0.381  -5.603  0.00  0.00    +0.004 A 
ATOM     17  C   UNL     1     -14.918  -1.237  -6.190  0.00  0.00    +0.047 A 
ATOM     18  C   UNL     1     -15.811  -0.740  -7.145  0.00  0.00    +0.142 A 
BRANCH  18  19
ATOM     19  O   UNL     1     -16.722  -1.590  -7.720  0.00  0.00    -0.505 OA
ATOM     20  H   UNL     1     -16.332  -1.943  -8.536  0.00  0.00    +0.292 HD
ENDBRANCH  18  19
ENDBRANCH  11  13
ENDBRANCH   1  12
BRANCH  10  21
ATOM     21  O   UNL     1     -19.389   2.172  -8.711  0.00  0.00    -0.506 OA
ATOM     22  H   UNL     1     -20.103   2.652  -8.262  0.00  0.00    +0.292 HD
ENDBRANCH  10  21
TORSDOF 4
ENDMDL
MODEL 9
REMARK VINA RESULT:      -6.5      9.958     11.089
REMARK  Name = min_compound935.pdb
REMARK  4 active torsions:
REMARK  status: ('A' for Active; 'I' for Inactive)
REMARK    1  A    between atoms: _1  and  _7
REMARK    2  A    between atoms: _5  and  _19
REMARK    3  A    between atoms: _8  and  _18
REMARK    4  A    between atoms: _9  and  _20
REMARK                            x       y       z     vdW  Elec       q    Type
REMARK                         _______ _______ _______ _____ _____    ______ ____
ROOT
ATOM      1  C   UNL     1     -16.668   2.626  -7.257  0.00  0.00    +0.042 A 
ATOM      2  C   UNL     1     -15.774   1.741  -6.599  0.00  0.00    -0.006 A 
ATOM      3  C   UNL     1     -14.878   0.871  -7.267  0.00  0.00    +0.009 A 
ATOM      4  C   UNL     1     -14.022   0.022  -6.562  0.00  0.00    +0.001 A 
ATOM      5  C   UNL     1     -14.040   0.015  -5.174  0.00  0.00    +0.001 A 
ATOM      6  C   UNL     1     -14.921   0.852  -4.489  0.00  0.00    +0.008 A 
ATOM      7  C   UNL     1     -15.790   1.711  -5.181  0.00  0.00    -0.017 A 
ATOM      8  C   UNL     1     -16.676   2.538  -4.473  0.00  0.00    +0.012 A 
ATOM      9  C   UNL     1     -17.545   3.402  -5.139  0.00  0.00    +0.046 A 
ATOM     10  C   UNL     1     -17.535   3.451  -6.528  0.00  0.00    +0.126 A 
ENDROOT
BRANCH   1  12
ATOM     11  N   UNL     1     -16.436   3.824  -9.348  0.00  0.00    -0.251 NA
ATOM     12  C   UNL     1     -16.661   2.709  -8.730  0.00  0.00    +0.123 C 
BRANCH  11  13
ATOM     13  C   UNL     1     -16.433   3.784 -10.754  0.00  0.00    +0.105 A 
ATOM     14  C   UNL     1     -17.469   3.082 -11.382  0.00  0.00    +0.031 A 
ATOM     15  C   UNL     1     -17.522   2.968 -12.773  0.00  0.00    +0.002 A 
ATOM     16  C   UNL     1     -16.528   3.553 -13.555  0.00  0.00    +0.004 A 
ATOM     17  C   UNL     1     -15.479   4.246 -12.951  0.00  0.00    +0.047 A 
ATOM     18  C   UNL     1     -15.431   4.356 -11.557  0.00  0.00    +0.142 A 
BRANCH  18  19
ATOM     19  O   UNL     1     -14.394   5.036 -10.972  0.00  0.00    -0.505 OA
ATOM     20  H   UNL     1     -13.827   5.388 -11.677  0.00  0.00    +0.292 HD
ENDBRANCH  18  19
ENDBRANCH  11  13
ENDBRANCH   1  12
BRANCH  10  21
ATOM     21  O   UNL     1     -18.339   4.354  -7.165  0.00  0.00    -0.506 OA
ATOM     22  H   UNL     1     -17.827   5.155  -7.358  0.00  0.00    +0.292 HD
ENDBRANCH  10  21
TORSDOF 4
ENDMDL
