MODEL 1
REMARK VINA RESULT:      -7.5      0.000      0.000
REMARK  Name = min_compound912.pdb
REMARK  5 active torsions:
REMARK  status: ('A' for Active; 'I' for Inactive)
REMARK    1  A    between atoms: _2  and  _19
REMARK    2  A    between atoms: _4  and  _21
REMARK    3  A    between atoms: _12  and  _21
REMARK    4  A    between atoms: _16  and  _22
REMARK    5  A    between atoms: _19  and  _20
REMARK                            x       y       z     vdW  Elec       q    Type
REMARK                         _______ _______ _______ _____ _____    ______ ____
ROOT
ATOM      1  O   UNL     1     -12.936   2.037 -20.372  0.00  0.00    -0.270 OA
ATOM      2  C   UNL     1     -12.968   1.964 -19.145  0.00  0.00    +0.245 C 
ATOM      3  N   UNL     1     -12.326   0.934 -18.531  0.00  0.00    -0.297 N 
ATOM      4  H   UNL     1     -11.798   0.356 -19.173  0.00  0.00    +0.150 HD
ATOM      5  C   UNL     1     -12.011   0.888 -17.127  0.00  0.00    +0.087 C 
ATOM      6  C   UNL     1     -11.527  -0.524 -16.710  0.00  0.00    +0.037 C 
ATOM      7  C   UNL     1     -10.072  -0.356 -16.277  0.00  0.00    +0.003 C 
ATOM      8  C   UNL     1     -10.012   1.065 -15.750  0.00  0.00    +0.003 C 
ATOM      9  C   UNL     1     -10.838   1.830 -16.773  0.00  0.00    +0.037 C 
ATOM     10  S   UNL     1     -13.532   1.290 -16.215  0.00  0.00    -0.084 S 
ATOM     11  C   UNL     1     -13.954   2.831 -16.988  0.00  0.00    +0.077 C 
ATOM     12  C   UNL     1     -13.674   2.990 -18.309  0.00  0.00    +0.055 C 
ENDROOT
BRANCH  11  13
ATOM     13  N   UNL     1     -14.679   3.798 -16.271  0.00  0.00    -0.309 N 
ATOM     14  H   UNL     1     -14.255   4.722 -16.301  0.00  0.00    +0.153 HD
BRANCH  13  15
ATOM     15  C   UNL     1     -15.374   3.637 -15.045  0.00  0.00    +0.032 A 
ATOM     16  C   UNL     1     -16.571   2.927 -14.907  0.00  0.00    +0.023 A 
ATOM     17  C   UNL     1     -17.218   2.828 -13.674  0.00  0.00    +0.002 A 
ATOM     18  C   UNL     1     -16.681   3.452 -12.555  0.00  0.00    +0.003 A 
ATOM     19  C   UNL     1     -15.499   4.193 -12.658  0.00  0.00    -0.049 A 
ATOM     20  C   UNL     1     -14.994   4.835 -11.400  0.00  0.00    +0.044 C 
ATOM     21  C   UNL     1     -14.863   4.291 -13.906  0.00  0.00    +0.026 A 
ENDBRANCH  13  15
ENDBRANCH  11  13
BRANCH  12  22
ATOM     22  C   UNL     1     -14.061   4.189 -18.991  0.00  0.00    +0.121 C 
BRANCH  22  23
ATOM     23  N   UNL     1     -14.461   5.414 -19.666  0.00  0.00    -0.326 NA
ATOM     24  H   UNL     1     -15.331   5.758 -19.259  0.00  0.00    +0.119 HD
ATOM     25  H   UNL     1     -13.732   6.117 -19.554  0.00  0.00    +0.119 HD
ENDBRANCH  22  23
ENDBRANCH  12  22
TORSDOF 4
ENDMDL
MODEL 2
REMARK VINA RESULT:      -7.1     13.354     15.603
REMARK  Name = min_compound912.pdb
REMARK  5 active torsions:
REMARK  status: ('A' for Active; 'I' for Inactive)
REMARK    1  A    between atoms: _2  and  _19
REMARK    2  A    between atoms: _4  and  _21
REMARK    3  A    between atoms: _12  and  _21
REMARK    4  A    between atoms: _16  and  _22
REMARK    5  A    between atoms: _19  and  _20
REMARK                            x       y       z     vdW  Elec       q    Type
REMARK                         _______ _______ _______ _____ _____    ______ ____
ROOT
ATOM      1  O   UNL     1     -17.870  -3.979  -0.450  0.00  0.00    -0.270 OA
ATOM      2  C   UNL     1     -16.719  -4.018  -0.880  0.00  0.00    +0.245 C 
ATOM      3  N   UNL     1     -15.762  -4.637  -0.137  0.00  0.00    -0.297 N 
ATOM      4  H   UNL     1     -16.132  -5.090   0.689  0.00  0.00    +0.150 HD
ATOM      5  C   UNL     1     -14.471  -5.034  -0.635  0.00  0.00    +0.087 C 
ATOM      6  C   UNL     1     -13.534  -5.461   0.523  0.00  0.00    +0.037 C 
ATOM      7  C   UNL     1     -13.254  -6.947   0.309  0.00  0.00    +0.003 C 
ATOM      8  C   UNL     1     -13.351  -7.121  -1.195  0.00  0.00    +0.003 C 
ATOM      9  C   UNL     1     -14.568  -6.279  -1.546  0.00  0.00    +0.037 C 
ATOM     10  S   UNL     1     -13.750  -3.598  -1.485  0.00  0.00    -0.084 S 
ATOM     11  C   UNL     1     -15.067  -3.218  -2.614  0.00  0.00    +0.077 C 
ATOM     12  C   UNL     1     -16.348  -3.425  -2.206  0.00  0.00    +0.055 C 
ENDROOT
BRANCH  11  13
ATOM     13  N   UNL     1     -14.780  -2.596  -3.840  0.00  0.00    -0.309 N 
ATOM     14  H   UNL     1     -14.214  -3.171  -4.460  0.00  0.00    +0.153 HD
BRANCH  13  15
ATOM     15  C   UNL     1     -14.501  -1.227  -4.081  0.00  0.00    +0.032 A 
ATOM     16  C   UNL     1     -14.290  -0.278  -3.075  0.00  0.00    +0.023 A 
ATOM     17  C   UNL     1     -14.044   1.062  -3.382  0.00  0.00    +0.002 A 
ATOM     18  C   UNL     1     -14.018   1.479  -4.707  0.00  0.00    +0.003 A 
ATOM     19  C   UNL     1     -14.250   0.565  -5.741  0.00  0.00    -0.049 A 
ATOM     20  C   UNL     1     -14.206   1.104  -7.139  0.00  0.00    +0.044 C 
ATOM     21  C   UNL     1     -14.504  -0.778  -5.417  0.00  0.00    +0.026 A 
ENDBRANCH  13  15
ENDBRANCH  11  13
BRANCH  12  22
ATOM     22  C   UNL     1     -17.444  -3.066  -3.056  0.00  0.00    +0.121 C 
BRANCH  22  23
ATOM     23  N   UNL     1     -18.551  -2.716  -3.932  0.00  0.00    -0.326 NA
ATOM     24  H   UNL     1     -18.773  -3.510  -4.533  0.00  0.00    +0.119 HD
ATOM     25  H   UNL     1     -19.367  -2.477  -3.369  0.00  0.00    +0.119 HD
ENDBRANCH  22  23
ENDBRANCH  12  22
TORSDOF 4
ENDMDL
MODEL 3
REMARK VINA RESULT:      -7.0      1.392      1.498
REMARK  Name = min_compound912.pdb
REMARK  5 active torsions:
REMARK  status: ('A' for Active; 'I' for Inactive)
REMARK    1  A    between atoms: _2  and  _19
REMARK    2  A    between atoms: _4  and  _21
REMARK    3  A    between atoms: _12  and  _21
REMARK    4  A    between atoms: _16  and  _22
REMARK    5  A    between atoms: _19  and  _20
REMARK                            x       y       z     vdW  Elec       q    Type
REMARK                         _______ _______ _______ _____ _____    ______ ____
ROOT
ATOM      1  O   UNL     1     -12.890   4.389 -19.548  0.00  0.00    -0.270 OA
ATOM      2  C   UNL     1     -12.970   3.830 -18.456  0.00  0.00    +0.245 C 
ATOM      3  N   UNL     1     -12.512   2.555 -18.337  0.00  0.00    -0.297 N 
ATOM      4  H   UNL     1     -12.059   2.215 -19.176  0.00  0.00    +0.150 HD
ATOM      5  C   UNL     1     -12.251   1.895 -17.084  0.00  0.00    +0.087 C 
ATOM      6  C   UNL     1     -12.002   0.379 -17.294  0.00  0.00    +0.037 C 
ATOM      7  C   UNL     1     -10.552   0.133 -16.881  0.00  0.00    +0.003 C 
ATOM      8  C   UNL     1     -10.291   1.190 -15.825  0.00  0.00    +0.003 C 
ATOM      9  C   UNL     1     -10.959   2.421 -16.419  0.00  0.00    +0.037 C 
ATOM     10  S   UNL     1     -13.719   2.117 -16.036  0.00  0.00    -0.084 S 
ATOM     11  C   UNL     1     -13.877   3.884 -16.101  0.00  0.00    +0.077 C 
ATOM     12  C   UNL     1     -13.536   4.522 -17.252  0.00  0.00    +0.055 C 
ENDROOT
BRANCH  11  13
ATOM     13  N   UNL     1     -14.466   4.574 -15.027  0.00  0.00    -0.309 N 
ATOM     14  H   UNL     1     -13.841   5.247 -14.591  0.00  0.00    +0.153 HD
BRANCH  13  15
ATOM     15  C   UNL     1     -15.372   4.072 -14.059  0.00  0.00    +0.032 A 
ATOM     16  C   UNL     1     -16.467   3.253 -14.354  0.00  0.00    +0.023 A 
ATOM     17  C   UNL     1     -17.335   2.814 -13.353  0.00  0.00    +0.002 A 
ATOM     18  C   UNL     1     -17.128   3.199 -12.035  0.00  0.00    +0.003 A 
ATOM     19  C   UNL     1     -16.058   4.038 -11.702  0.00  0.00    -0.049 A 
ATOM     20  C   UNL     1     -15.914   4.404 -10.256  0.00  0.00    +0.044 C 
ATOM     21  C   UNL     1     -15.198   4.479 -12.721  0.00  0.00    +0.026 A 
ENDBRANCH  13  15
ENDBRANCH  11  13
BRANCH  12  22
ATOM     22  C   UNL     1     -13.713   5.938 -17.374  0.00  0.00    +0.121 C 
BRANCH  22  23
ATOM     23  N   UNL     1     -13.875   7.378 -17.504  0.00  0.00    -0.326 NA
ATOM     24  H   UNL     1     -14.318   7.747 -16.663  0.00  0.00    +0.119 HD
ATOM     25  H   UNL     1     -12.961   7.812 -17.626  0.00  0.00    +0.119 HD
ENDBRANCH  22  23
ENDBRANCH  12  22
TORSDOF 4
ENDMDL
MODEL 4
REMARK VINA RESULT:      -6.9      2.306      2.659
REMARK  Name = min_compound912.pdb
REMARK  5 active torsions:
REMARK  status: ('A' for Active; 'I' for Inactive)
REMARK    1  A    between atoms: _2  and  _19
REMARK    2  A    between atoms: _4  and  _21
REMARK    3  A    between atoms: _12  and  _21
REMARK    4  A    between atoms: _16  and  _22
REMARK    5  A    between atoms: _19  and  _20
REMARK                            x       y       z     vdW  Elec       q    Type
REMARK                         _______ _______ _______ _____ _____    ______ ____
ROOT
ATOM      1  O   UNL     1     -12.136   6.878 -18.540  0.00  0.00    -0.270 OA
ATOM      2  C   UNL     1     -12.600   5.887 -17.979  0.00  0.00    +0.245 C 
ATOM      3  N   UNL     1     -11.939   4.703 -18.084  0.00  0.00    -0.297 N 
ATOM      4  H   UNL     1     -11.053   4.784 -18.567  0.00  0.00    +0.150 HD
ATOM      5  C   UNL     1     -12.177   3.557 -17.246  0.00  0.00    +0.087 C 
ATOM      6  C   UNL     1     -11.457   2.302 -17.800  0.00  0.00    +0.037 C 
ATOM      7  C   UNL     1     -10.409   1.926 -16.754  0.00  0.00    +0.003 C 
ATOM      8  C   UNL     1     -11.014   2.403 -15.447  0.00  0.00    +0.003 C 
ATOM      9  C   UNL     1     -11.595   3.756 -15.828  0.00  0.00    +0.037 C 
ATOM     10  S   UNL     1     -13.970   3.257 -17.231  0.00  0.00    -0.084 S 
ATOM     11  C   UNL     1     -14.546   4.862 -16.738  0.00  0.00    +0.077 C 
ATOM     12  C   UNL     1     -13.859   5.955 -17.166  0.00  0.00    +0.055 C 
ENDROOT
BRANCH  11  13
ATOM     13  N   UNL     1     -15.756   4.986 -16.036  0.00  0.00    -0.309 N 
ATOM     14  H   UNL     1     -16.157   5.920 -16.087  0.00  0.00    +0.153 HD
BRANCH  13  15
ATOM     15  C   UNL     1     -16.117   4.384 -14.804  0.00  0.00    +0.032 A 
ATOM     16  C   UNL     1     -17.098   3.395 -14.669  0.00  0.00    +0.023 A 
ATOM     17  C   UNL     1     -17.422   2.861 -13.421  0.00  0.00    +0.002 A 
ATOM     18  C   UNL     1     -16.776   3.318 -12.280  0.00  0.00    +0.003 A 
ATOM     19  C   UNL     1     -15.807   4.323 -12.370  0.00  0.00    -0.049 A 
ATOM     20  C   UNL     1     -15.164   4.757 -11.087  0.00  0.00    +0.044 C 
ATOM     21  C   UNL     1     -15.497   4.858 -13.632  0.00  0.00    +0.026 A 
ENDBRANCH  13  15
ENDBRANCH  11  13
BRANCH  12  22
ATOM     22  C   UNL     1     -14.326   7.272 -16.852  0.00  0.00    +0.121 C 
BRANCH  22  23
ATOM     23  N   UNL     1     -14.805   8.612 -16.553  0.00  0.00    -0.326 NA
ATOM     24  H   UNL     1     -14.769   8.769 -15.545  0.00  0.00    +0.119 HD
ATOM     25  H   UNL     1     -14.214   9.297 -17.024  0.00  0.00    +0.119 HD
ENDBRANCH  22  23
ENDBRANCH  12  22
TORSDOF 4
ENDMDL
MODEL 5
REMARK VINA RESULT:      -6.9      1.896      5.630
REMARK  Name = min_compound912.pdb
REMARK  5 active torsions:
REMARK  status: ('A' for Active; 'I' for Inactive)
REMARK    1  A    between atoms: _2  and  _19
REMARK    2  A    between atoms: _4  and  _21
REMARK    3  A    between atoms: _12  and  _21
REMARK    4  A    between atoms: _16  and  _22
REMARK    5  A    between atoms: _19  and  _20
REMARK                            x       y       z     vdW  Elec       q    Type
REMARK                         _______ _______ _______ _____ _____    ______ ____
ROOT
ATOM      1  O   UNL     1     -16.176   3.793 -19.949  0.00  0.00    -0.270 OA
ATOM      2  C   UNL     1     -15.444   3.731 -18.963  0.00  0.00    +0.245 C 
ATOM      3  N   UNL     1     -15.886   4.241 -17.783  0.00  0.00    -0.297 N 
ATOM      4  H   UNL     1     -16.846   4.560 -17.823  0.00  0.00    +0.150 HD
ATOM      5  C   UNL     1     -15.292   3.967 -16.500  0.00  0.00    +0.087 C 
ATOM      6  C   UNL     1     -15.862   4.908 -15.409  0.00  0.00    +0.037 C 
ATOM      7  C   UNL     1     -16.610   4.008 -14.429  0.00  0.00    +0.003 C 
ATOM      8  C   UNL     1     -15.871   2.686 -14.514  0.00  0.00    +0.003 C 
ATOM      9  C   UNL     1     -15.627   2.541 -16.009  0.00  0.00    +0.037 C 
ATOM     10  S   UNL     1     -13.503   4.252 -16.657  0.00  0.00    -0.084 S 
ATOM     11  C   UNL     1     -13.148   3.210 -18.050  0.00  0.00    +0.077 C 
ATOM     12  C   UNL     1     -14.090   3.088 -19.023  0.00  0.00    +0.055 C 
ENDROOT
BRANCH  11  13
ATOM     13  N   UNL     1     -11.871   2.640 -18.190  0.00  0.00    -0.309 N 
ATOM     14  H   UNL     1     -11.510   2.692 -19.140  0.00  0.00    +0.153 HD
BRANCH  13  15
ATOM     15  C   UNL     1     -11.355   1.484 -17.551  0.00  0.00    +0.032 A 
ATOM     16  C   UNL     1     -10.000   1.137 -17.527  0.00  0.00    +0.023 A 
ATOM     17  C   UNL     1      -9.562  -0.030 -16.899  0.00  0.00    +0.002 A 
ATOM     18  C   UNL     1     -10.478  -0.881 -16.293  0.00  0.00    +0.003 A 
ATOM     19  C   UNL     1     -11.845  -0.581 -16.318  0.00  0.00    -0.049 A 
ATOM     20  C   UNL     1     -12.761  -1.556 -15.642  0.00  0.00    +0.044 C 
ATOM     21  C   UNL     1     -12.273   0.593 -16.960  0.00  0.00    +0.026 A 
ENDBRANCH  13  15
ENDBRANCH  11  13
BRANCH  12  22
ATOM     22  C   UNL     1     -13.820   2.314 -20.198  0.00  0.00    +0.121 C 
BRANCH  22  23
ATOM     23  N   UNL     1     -13.540   1.546 -21.401  0.00  0.00    -0.326 NA
ATOM     24  H   UNL     1     -12.770   1.981 -21.911  0.00  0.00    +0.119 HD
ATOM     25  H   UNL     1     -13.282   0.594 -21.144  0.00  0.00    +0.119 HD
ENDBRANCH  22  23
ENDBRANCH  12  22
TORSDOF 4
ENDMDL
MODEL 6
REMARK VINA RESULT:      -6.8      3.398      6.148
REMARK  Name = min_compound912.pdb
REMARK  5 active torsions:
REMARK  status: ('A' for Active; 'I' for Inactive)
REMARK    1  A    between atoms: _2  and  _19
REMARK    2  A    between atoms: _4  and  _21
REMARK    3  A    between atoms: _12  and  _21
REMARK    4  A    between atoms: _16  and  _22
REMARK    5  A    between atoms: _19  and  _20
REMARK                            x       y       z     vdW  Elec       q    Type
REMARK                         _______ _______ _______ _____ _____    ______ ____
ROOT
ATOM      1  O   UNL     1     -13.374   4.878 -21.806  0.00  0.00    -0.270 OA
ATOM      2  C   UNL     1     -13.408   4.846 -20.577  0.00  0.00    +0.245 C 
ATOM      3  N   UNL     1     -13.437   6.020 -19.890  0.00  0.00    -0.297 N 
ATOM      4  H   UNL     1     -13.512   6.830 -20.492  0.00  0.00    +0.150 HD
ATOM      5  C   UNL     1     -13.789   6.144 -18.500  0.00  0.00    +0.087 C 
ATOM      6  C   UNL     1     -13.462   7.562 -17.966  0.00  0.00    +0.037 C 
ATOM      7  C   UNL     1     -14.805   8.191 -17.602  0.00  0.00    +0.003 C 
ATOM      8  C   UNL     1     -15.669   7.006 -17.217  0.00  0.00    +0.003 C 
ATOM      9  C   UNL     1     -15.310   5.978 -18.279  0.00  0.00    +0.037 C 
ATOM     10  S   UNL     1     -12.810   4.920 -17.578  0.00  0.00    -0.084 S 
ATOM     11  C   UNL     1     -13.229   3.450 -18.481  0.00  0.00    +0.077 C 
ATOM     12  C   UNL     1     -13.442   3.552 -19.820  0.00  0.00    +0.055 C 
ENDROOT
BRANCH  11  13
ATOM     13  N   UNL     1     -13.207   2.203 -17.835  0.00  0.00    -0.309 N 
ATOM     14  H   UNL     1     -14.070   1.990 -17.340  0.00  0.00    +0.153 HD
BRANCH  13  15
ATOM     15  C   UNL     1     -12.118   1.582 -17.172  0.00  0.00    +0.032 A 
ATOM     16  C   UNL     1     -11.602   2.002 -15.941  0.00  0.00    +0.023 A 
ATOM     17  C   UNL     1     -10.510   1.359 -15.355  0.00  0.00    +0.002 A 
ATOM     18  C   UNL     1      -9.904   0.289 -16.000  0.00  0.00    +0.003 A 
ATOM     19  C   UNL     1     -10.375  -0.146 -17.244  0.00  0.00    -0.049 A 
ATOM     20  C   UNL     1      -9.658  -1.305 -17.868  0.00  0.00    +0.044 C 
ATOM     21  C   UNL     1     -11.469   0.515 -17.826  0.00  0.00    +0.026 A 
ENDBRANCH  13  15
ENDBRANCH  11  13
BRANCH  12  22
ATOM     22  C   UNL     1     -13.713   2.381 -20.600  0.00  0.00    +0.121 C 
BRANCH  22  23
ATOM     23  N   UNL     1     -13.970   1.194 -21.400  0.00  0.00    -0.326 NA
ATOM     24  H   UNL     1     -14.112   1.465 -22.374  0.00  0.00    +0.119 HD
ATOM     25  H   UNL     1     -13.174   0.562 -21.335  0.00  0.00    +0.119 HD
ENDBRANCH  22  23
ENDBRANCH  12  22
TORSDOF 4
ENDMDL
MODEL 7
REMARK VINA RESULT:      -6.6      3.262      6.006
REMARK  Name = min_compound912.pdb
REMARK  5 active torsions:
REMARK  status: ('A' for Active; 'I' for Inactive)
REMARK    1  A    between atoms: _2  and  _19
REMARK    2  A    between atoms: _4  and  _21
REMARK    3  A    between atoms: _12  and  _21
REMARK    4  A    between atoms: _16  and  _22
REMARK    5  A    between atoms: _19  and  _20
REMARK                            x       y       z     vdW  Elec       q    Type
REMARK                         _______ _______ _______ _____ _____    ______ ____
ROOT
ATOM      1  O   UNL     1     -14.656   3.707 -14.827  0.00  0.00    -0.270 OA
ATOM      2  C   UNL     1     -13.643   3.781 -15.519  0.00  0.00    +0.245 C 
ATOM      3  N   UNL     1     -12.678   2.833 -15.375  0.00  0.00    -0.297 N 
ATOM      4  H   UNL     1     -12.945   2.088 -14.743  0.00  0.00    +0.150 HD
ATOM      5  C   UNL     1     -11.607   2.609 -16.310  0.00  0.00    +0.087 C 
ATOM      6  C   UNL     1     -10.542   1.650 -15.718  0.00  0.00    +0.037 C 
ATOM      7  C   UNL     1     -10.578   0.397 -16.590  0.00  0.00    +0.003 C 
ATOM      8  C   UNL     1     -11.010   0.913 -17.950  0.00  0.00    +0.003 C 
ATOM      9  C   UNL     1     -12.106   1.906 -17.592  0.00  0.00    +0.037 C 
ATOM     10  S   UNL     1     -10.834   4.219 -16.649  0.00  0.00    -0.084 S 
ATOM     11  C   UNL     1     -12.267   5.150 -17.134  0.00  0.00    +0.077 C 
ATOM     12  C   UNL     1     -13.453   4.873 -16.530  0.00  0.00    +0.055 C 
ENDROOT
BRANCH  11  13
ATOM     13  N   UNL     1     -12.132   6.228 -18.024  0.00  0.00    -0.309 N 
ATOM     14  H   UNL     1     -12.572   7.083 -17.691  0.00  0.00    +0.153 HD
BRANCH  13  15
ATOM     15  C   UNL     1     -12.168   6.201 -19.442  0.00  0.00    +0.032 A 
ATOM     16  C   UNL     1     -12.820   5.218 -20.194  0.00  0.00    +0.023 A 
ATOM     17  C   UNL     1     -12.795   5.238 -21.589  0.00  0.00    +0.002 A 
ATOM     18  C   UNL     1     -12.103   6.238 -22.259  0.00  0.00    +0.003 A 
ATOM     19  C   UNL     1     -11.417   7.225 -21.543  0.00  0.00    -0.049 A 
ATOM     20  C   UNL     1     -10.694   8.262 -22.348  0.00  0.00    +0.044 C 
ATOM     21  C   UNL     1     -11.443   7.188 -20.139  0.00  0.00    +0.026 A 
ENDBRANCH  13  15
ENDBRANCH  11  13
BRANCH  12  22
ATOM     22  C   UNL     1     -14.619   5.645 -16.838  0.00  0.00    +0.121 C 
BRANCH  22  23
ATOM     23  N   UNL     1     -15.812   6.413 -17.159  0.00  0.00    -0.326 NA
ATOM     24  H   UNL     1     -16.441   6.415 -16.355  0.00  0.00    +0.119 HD
ATOM     25  H   UNL     1     -15.548   7.371 -17.386  0.00  0.00    +0.119 HD
ENDBRANCH  22  23
ENDBRANCH  12  22
TORSDOF 4
ENDMDL
MODEL 8
REMARK VINA RESULT:      -6.6      2.107      6.083
REMARK  Name = min_compound912.pdb
REMARK  5 active torsions:
REMARK  status: ('A' for Active; 'I' for Inactive)
REMARK    1  A    between atoms: _2  and  _19
REMARK    2  A    between atoms: _4  and  _21
REMARK    3  A    between atoms: _12  and  _21
REMARK    4  A    between atoms: _16  and  _22
REMARK    5  A    between atoms: _19  and  _20
REMARK                            x       y       z     vdW  Elec       q    Type
REMARK                         _______ _______ _______ _____ _____    ______ ____
ROOT
ATOM      1  O   UNL     1     -16.811   6.170 -17.192  0.00  0.00    -0.270 OA
ATOM      2  C   UNL     1     -16.228   5.338 -16.500  0.00  0.00    +0.245 C 
ATOM      3  N   UNL     1     -16.234   5.487 -15.148  0.00  0.00    -0.297 N 
ATOM      4  H   UNL     1     -16.812   6.256 -14.836  0.00  0.00    +0.150 HD
ATOM      5  C   UNL     1     -15.877   4.453 -14.211  0.00  0.00    +0.087 C 
ATOM      6  C   UNL     1     -15.730   5.027 -12.779  0.00  0.00    +0.037 C 
ATOM      7  C   UNL     1     -16.834   4.372 -11.951  0.00  0.00    +0.003 C 
ATOM      8  C   UNL     1     -17.037   3.026 -12.619  0.00  0.00    +0.003 C 
ATOM      9  C   UNL     1     -16.982   3.379 -14.097  0.00  0.00    +0.037 C 
ATOM     10  S   UNL     1     -14.281   3.764 -14.743  0.00  0.00    -0.084 S 
ATOM     11  C   UNL     1     -14.671   3.351 -16.424  0.00  0.00    +0.077 C 
ATOM     12  C   UNL     1     -15.532   4.154 -17.105  0.00  0.00    +0.055 C 
ENDROOT
BRANCH  11  13
ATOM     13  N   UNL     1     -13.996   2.296 -17.060  0.00  0.00    -0.309 N 
ATOM     14  H   UNL     1     -14.542   1.439 -17.107  0.00  0.00    +0.153 HD
BRANCH  13  15
ATOM     15  C   UNL     1     -12.616   1.974 -16.991  0.00  0.00    +0.032 A 
ATOM     16  C   UNL     1     -11.585   2.848 -17.349  0.00  0.00    +0.023 A 
ATOM     17  C   UNL     1     -10.246   2.458 -17.279  0.00  0.00    +0.002 A 
ATOM     18  C   UNL     1      -9.917   1.175 -16.861  0.00  0.00    +0.003 A 
ATOM     19  C   UNL     1     -10.921   0.263 -16.518  0.00  0.00    -0.049 A 
ATOM     20  C   UNL     1     -10.473  -1.099 -16.081  0.00  0.00    +0.044 C 
ATOM     21  C   UNL     1     -12.263   0.667 -16.601  0.00  0.00    +0.026 A 
ENDBRANCH  13  15
ENDBRANCH  11  13
BRANCH  12  22
ATOM     22  C   UNL     1     -15.821   3.900 -18.485  0.00  0.00    +0.121 C 
BRANCH  22  23
ATOM     23  N   UNL     1     -16.126   3.659 -19.886  0.00  0.00    -0.326 NA
ATOM     24  H   UNL     1     -15.637   2.820 -20.201  0.00  0.00    +0.119 HD
ATOM     25  H   UNL     1     -17.131   3.528 -19.998  0.00  0.00    +0.119 HD
ENDBRANCH  22  23
ENDBRANCH  12  22
TORSDOF 4
ENDMDL
MODEL 9
REMARK VINA RESULT:      -6.4      1.785      2.468
REMARK  Name = min_compound912.pdb
REMARK  5 active torsions:
REMARK  status: ('A' for Active; 'I' for Inactive)
REMARK    1  A    between atoms: _2  and  _19
REMARK    2  A    between atoms: _4  and  _21
REMARK    3  A    between atoms: _12  and  _21
REMARK    4  A    between atoms: _16  and  _22
REMARK    5  A    between atoms: _19  and  _20
REMARK                            x       y       z     vdW  Elec       q    Type
REMARK                         _______ _______ _______ _____ _____    ______ ____
ROOT
ATOM      1  O   UNL     1     -14.846   3.686 -19.847  0.00  0.00    -0.270 OA
ATOM      2  C   UNL     1     -14.504   3.345 -18.717  0.00  0.00    +0.245 C 
ATOM      3  N   UNL     1     -13.240   2.882 -18.525  0.00  0.00    -0.297 N 
ATOM      4  H   UNL     1     -12.663   2.946 -19.355  0.00  0.00    +0.150 HD
ATOM      5  C   UNL     1     -12.605   2.747 -17.240  0.00  0.00    +0.087 C 
ATOM      6  C   UNL     1     -11.283   1.945 -17.352  0.00  0.00    +0.037 C 
ATOM      7  C   UNL     1     -10.170   2.920 -16.977  0.00  0.00    +0.003 C 
ATOM      8  C   UNL     1     -10.837   3.877 -16.008  0.00  0.00    +0.003 C 
ATOM      9  C   UNL     1     -12.190   4.119 -16.662  0.00  0.00    +0.037 C 
ATOM     10  S   UNL     1     -13.756   1.849 -16.156  0.00  0.00    -0.084 S 
ATOM     11  C   UNL     1     -15.202   2.862 -16.339  0.00  0.00    +0.077 C 
ATOM     12  C   UNL     1     -15.433   3.448 -17.544  0.00  0.00    +0.055 C 
ENDROOT
BRANCH  11  13
ATOM     13  N   UNL     1     -16.140   2.936 -15.296  0.00  0.00    -0.309 N 
ATOM     14  H   UNL     1     -17.086   3.129 -15.618  0.00  0.00    +0.153 HD
BRANCH  13  15
ATOM     15  C   UNL     1     -15.963   3.481 -13.999  0.00  0.00    +0.032 A 
ATOM     16  C   UNL     1     -14.982   4.422 -13.668  0.00  0.00    +0.023 A 
ATOM     17  C   UNL     1     -14.847   4.900 -12.363  0.00  0.00    +0.002 A 
ATOM     18  C   UNL     1     -15.687   4.433 -11.360  0.00  0.00    +0.003 A 
ATOM     19  C   UNL     1     -16.664   3.474 -11.646  0.00  0.00    -0.049 A 
ATOM     20  C   UNL     1     -17.523   3.025 -10.502  0.00  0.00    +0.044 C 
ATOM     21  C   UNL     1     -16.784   2.995 -12.962  0.00  0.00    +0.026 A 
ENDBRANCH  13  15
ENDBRANCH  11  13
BRANCH  12  22
ATOM     22  C   UNL     1     -16.623   4.216 -17.758  0.00  0.00    +0.121 C 
BRANCH  22  23
ATOM     23  N   UNL     1     -17.824   5.002 -17.993  0.00  0.00    -0.326 NA
ATOM     24  H   UNL     1     -17.601   5.791 -18.600  0.00  0.00    +0.119 HD
ATOM     25  H   UNL     1     -18.530   4.419 -18.441  0.00  0.00    +0.119 HD
ENDBRANCH  22  23
ENDBRANCH  12  22
TORSDOF 4
ENDMDL
