MODEL 1
REMARK VINA RESULT:      -6.3      0.000      0.000
REMARK  Name = min_compound971.pdb
REMARK  2 active torsions:
REMARK  status: ('A' for Active; 'I' for Inactive)
REMARK    1  A    between atoms: _7  and  _17
REMARK    2  A    between atoms: _9  and  _20
REMARK                            x       y       z     vdW  Elec       q    Type
REMARK                         _______ _______ _______ _____ _____    ______ ____
ROOT
ATOM      1  C   UNL     1     -15.156   2.470 -16.151  0.00  0.00    +0.137 C 
ATOM      2  N   UNL     1     -13.734   2.671 -16.297  0.00  0.00    -0.223 N 
ATOM      3  C   UNL     1     -13.479   3.988 -16.744  0.00  0.00    +0.317 C 
ATOM      4  O   UNL     1     -12.418   4.402 -17.185  0.00  0.00    -0.252 OA
ATOM      5  N   UNL     1     -14.685   4.707 -16.607  0.00  0.00    -0.231 N 
ATOM      6  C   UNL     1     -14.865   6.050 -16.860  0.00  0.00    +0.191 A 
ATOM      7  N   UNL     1     -16.002   6.683 -16.643  0.00  0.00    -0.126 NA
ATOM      8  N   UNL     1     -15.931   8.025 -16.959  0.00  0.00    -0.148 NA
ATOM      9  C   UNL     1     -14.739   8.351 -17.408  0.00  0.00    +0.183 A 
ATOM     10  S   UNL     1     -13.628   7.053 -17.479  0.00  0.00    -0.038 S 
ATOM     11  C   UNL     1     -12.829   1.628 -16.353  0.00  0.00    +0.211 A 
ATOM     12  N   UNL     1     -11.442   1.688 -16.329  0.00  0.00    -0.257 N 
ATOM     13  C   UNL     1     -10.621   2.796 -15.891  0.00  0.00    +0.158 C 
ATOM     14  C   UNL     1     -10.999   0.404 -16.552  0.00  0.00    +0.369 A 
ATOM     15  C   UNL     1     -12.107  -0.397 -16.541  0.00  0.00    +0.219 A 
ATOM     16  N   UNL     1     -13.230   0.367 -16.385  0.00  0.00    -0.215 NA
ATOM     17  C   UNL     1     -15.713   3.872 -16.034  0.00  0.00    +0.137 C 
ENDROOT
BRANCH  14  18
ATOM     18  N   UNL     1      -9.641   0.018 -16.710  0.00  0.00    +0.100 N 
ATOM     19  O   UNL     1      -9.037   0.438 -17.703  0.00  0.00    +0.043 OA
ATOM     20  O   UNL     1      -9.177  -0.726 -15.839  0.00  0.00    -0.575 OA
ENDBRANCH  14  18
TORSDOF 1
ENDMDL
MODEL 2
REMARK VINA RESULT:      -6.2      2.824      7.117
REMARK  Name = min_compound971.pdb
REMARK  2 active torsions:
REMARK  status: ('A' for Active; 'I' for Inactive)
REMARK    1  A    between atoms: _7  and  _17
REMARK    2  A    between atoms: _9  and  _20
REMARK                            x       y       z     vdW  Elec       q    Type
REMARK                         _______ _______ _______ _____ _____    ______ ____
ROOT
ATOM      1  C   UNL     1     -10.777   4.972 -16.418  0.00  0.00    +0.137 C 
ATOM      2  N   UNL     1     -12.121   4.633 -16.824  0.00  0.00    -0.223 N 
ATOM      3  C   UNL     1     -12.240   3.230 -16.962  0.00  0.00    +0.317 C 
ATOM      4  O   UNL     1     -13.160   2.641 -17.508  0.00  0.00    -0.252 OA
ATOM      5  N   UNL     1     -11.090   2.662 -16.376  0.00  0.00    -0.231 N 
ATOM      6  C   UNL     1     -10.833   1.315 -16.227  0.00  0.00    +0.191 A 
ATOM      7  N   UNL     1      -9.770   0.844 -15.604  0.00  0.00    -0.126 NA
ATOM      8  N   UNL     1      -9.742  -0.536 -15.571  0.00  0.00    -0.148 NA
ATOM      9  C   UNL     1     -10.788  -1.052 -16.177  0.00  0.00    +0.183 A 
ATOM     10  S   UNL     1     -11.872   0.100 -16.828  0.00  0.00    -0.038 S 
ATOM     11  C   UNL     1     -13.002   5.558 -17.350  0.00  0.00    +0.211 A 
ATOM     12  N   UNL     1     -14.354   5.399 -17.624  0.00  0.00    -0.257 N 
ATOM     13  C   UNL     1     -15.238   4.375 -17.112  0.00  0.00    +0.158 C 
ATOM     14  C   UNL     1     -14.753   6.551 -18.264  0.00  0.00    +0.369 A 
ATOM     15  C   UNL     1     -13.692   7.412 -18.212  0.00  0.00    +0.219 A 
ATOM     16  N   UNL     1     -12.626   6.798 -17.614  0.00  0.00    -0.215 NA
ATOM     17  C   UNL     1     -10.241   3.689 -15.822  0.00  0.00    +0.137 C 
ENDROOT
BRANCH  14  18
ATOM     18  N   UNL     1     -16.040   6.781 -18.818  0.00  0.00    +0.100 N 
ATOM     19  O   UNL     1     -16.279   6.303 -19.932  0.00  0.00    +0.043 OA
ATOM     20  O   UNL     1     -16.817   7.460 -18.138  0.00  0.00    -0.575 OA
ENDBRANCH  14  18
TORSDOF 1
ENDMDL
MODEL 3
REMARK VINA RESULT:      -6.0      2.917      7.037
REMARK  Name = min_compound971.pdb
REMARK  2 active torsions:
REMARK  status: ('A' for Active; 'I' for Inactive)
REMARK    1  A    between atoms: _7  and  _17
REMARK    2  A    between atoms: _9  and  _20
REMARK                            x       y       z     vdW  Elec       q    Type
REMARK                         _______ _______ _______ _____ _____    ______ ____
ROOT
ATOM      1  C   UNL     1     -11.671   4.935 -17.372  0.00  0.00    +0.137 C 
ATOM      2  N   UNL     1     -12.821   4.370 -16.705  0.00  0.00    -0.223 N 
ATOM      3  C   UNL     1     -12.720   2.960 -16.689  0.00  0.00    +0.317 C 
ATOM      4  O   UNL     1     -13.620   2.181 -16.416  0.00  0.00    -0.252 OA
ATOM      5  N   UNL     1     -11.400   2.640 -17.072  0.00  0.00    -0.231 N 
ATOM      6  C   UNL     1     -10.851   1.376 -17.120  0.00  0.00    +0.191 A 
ATOM      7  N   UNL     1      -9.586   1.145 -17.417  0.00  0.00    -0.126 NA
ATOM      8  N   UNL     1      -9.269  -0.198 -17.384  0.00  0.00    -0.148 NA
ATOM      9  C   UNL     1     -10.313  -0.930 -17.066  0.00  0.00    +0.183 A 
ATOM     10  S   UNL     1     -11.747  -0.040 -16.788  0.00  0.00    -0.038 S 
ATOM     11  C   UNL     1     -13.982   5.083 -16.476  0.00  0.00    +0.211 A 
ATOM     12  N   UNL     1     -15.082   4.714 -15.713  0.00  0.00    -0.257 N 
ATOM     13  C   UNL     1     -15.143   3.678 -14.706  0.00  0.00    +0.158 C 
ATOM     14  C   UNL     1     -16.031   5.692 -15.911  0.00  0.00    +0.369 A 
ATOM     15  C   UNL     1     -15.426   6.678 -16.639  0.00  0.00    +0.219 A 
ATOM     16  N   UNL     1     -14.148   6.305 -16.955  0.00  0.00    -0.215 NA
ATOM     17  C   UNL     1     -10.631   3.839 -17.300  0.00  0.00    +0.137 C 
ENDROOT
BRANCH  14  18
ATOM     18  N   UNL     1     -17.356   5.669 -15.401  0.00  0.00    +0.100 N 
ATOM     19  O   UNL     1     -18.204   5.034 -16.037  0.00  0.00    +0.043 OA
ATOM     20  O   UNL     1     -17.554   6.304 -14.360  0.00  0.00    -0.575 OA
ENDBRANCH  14  18
TORSDOF 1
ENDMDL
MODEL 4
REMARK VINA RESULT:      -5.9      2.262      2.890
REMARK  Name = min_compound971.pdb
REMARK  2 active torsions:
REMARK  status: ('A' for Active; 'I' for Inactive)
REMARK    1  A    between atoms: _7  and  _17
REMARK    2  A    between atoms: _9  and  _20
REMARK                            x       y       z     vdW  Elec       q    Type
REMARK                         _______ _______ _______ _____ _____    ______ ____
ROOT
ATOM      1  C   UNL     1     -11.590   5.500 -16.985  0.00  0.00    +0.137 C 
ATOM      2  N   UNL     1     -12.065   4.213 -17.434  0.00  0.00    -0.223 N 
ATOM      3  C   UNL     1     -13.335   4.355 -18.039  0.00  0.00    +0.317 C 
ATOM      4  O   UNL     1     -14.105   3.446 -18.309  0.00  0.00    -0.252 OA
ATOM      5  N   UNL     1     -13.540   5.736 -18.239  0.00  0.00    -0.231 N 
ATOM      6  C   UNL     1     -14.622   6.315 -18.869  0.00  0.00    +0.191 A 
ATOM      7  N   UNL     1     -14.724   7.612 -19.090  0.00  0.00    -0.126 NA
ATOM      8  N   UNL     1     -15.890   7.948 -19.749  0.00  0.00    -0.148 NA
ATOM      9  C   UNL     1     -16.625   6.887 -19.996  0.00  0.00    +0.183 A 
ATOM     10  S   UNL     1     -15.955   5.414 -19.444  0.00  0.00    -0.038 S 
ATOM     11  C   UNL     1     -11.527   3.019 -16.994  0.00  0.00    +0.211 A 
ATOM     12  N   UNL     1     -11.780   1.736 -17.462  0.00  0.00    -0.257 N 
ATOM     13  C   UNL     1     -12.377   1.367 -18.727  0.00  0.00    +0.158 C 
ATOM     14  C   UNL     1     -11.116   0.880 -16.612  0.00  0.00    +0.369 A 
ATOM     15  C   UNL     1     -10.371   1.663 -15.776  0.00  0.00    +0.219 A 
ATOM     16  N   UNL     1     -10.608   2.984 -16.043  0.00  0.00    -0.215 NA
ATOM     17  C   UNL     1     -12.391   6.490 -17.802  0.00  0.00    +0.137 C 
ENDROOT
BRANCH  14  18
ATOM     18  N   UNL     1     -11.181  -0.538 -16.657  0.00  0.00    +0.100 N 
ATOM     19  O   UNL     1     -12.237  -1.075 -16.306  0.00  0.00    +0.043 OA
ATOM     20  O   UNL     1     -10.159  -1.123 -17.033  0.00  0.00    -0.575 OA
ENDBRANCH  14  18
TORSDOF 1
ENDMDL
MODEL 5
REMARK VINA RESULT:      -5.8      2.186      3.123
REMARK  Name = min_compound971.pdb
REMARK  2 active torsions:
REMARK  status: ('A' for Active; 'I' for Inactive)
REMARK    1  A    between atoms: _7  and  _17
REMARK    2  A    between atoms: _9  and  _20
REMARK                            x       y       z     vdW  Elec       q    Type
REMARK                         _______ _______ _______ _____ _____    ______ ____
ROOT
ATOM      1  C   UNL     1     -13.351   5.891 -17.165  0.00  0.00    +0.137 C 
ATOM      2  N   UNL     1     -13.271   4.531 -16.686  0.00  0.00    -0.223 N 
ATOM      3  C   UNL     1     -14.328   4.280 -15.780  0.00  0.00    +0.317 C 
ATOM      4  O   UNL     1     -14.412   3.321 -15.028  0.00  0.00    -0.252 OA
ATOM      5  N   UNL     1     -15.233   5.355 -15.899  0.00  0.00    -0.231 N 
ATOM      6  C   UNL     1     -16.442   5.476 -15.246  0.00  0.00    +0.191 A 
ATOM      7  N   UNL     1     -17.281   6.473 -15.453  0.00  0.00    -0.126 NA
ATOM      8  N   UNL     1     -18.430   6.366 -14.695  0.00  0.00    -0.148 NA
ATOM      9  C   UNL     1     -18.409   5.290 -13.940  0.00  0.00    +0.183 A 
ATOM     10  S   UNL     1     -16.996   4.339 -14.098  0.00  0.00    -0.038 S 
ATOM     11  C   UNL     1     -12.134   3.757 -16.811  0.00  0.00    +0.211 A 
ATOM     12  N   UNL     1     -11.982   2.403 -16.543  0.00  0.00    -0.257 N 
ATOM     13  C   UNL     1     -13.027   1.412 -16.413  0.00  0.00    +0.158 C 
ATOM     14  C   UNL     1     -10.639   2.134 -16.685  0.00  0.00    +0.369 A 
ATOM     15  C   UNL     1     -10.065   3.271 -17.181  0.00  0.00    +0.219 A 
ATOM     16  N   UNL     1     -11.006   4.258 -17.285  0.00  0.00    -0.215 NA
ATOM     17  C   UNL     1     -14.789   6.286 -16.908  0.00  0.00    +0.137 C 
ENDROOT
BRANCH  14  18
ATOM     18  N   UNL     1     -10.015   0.889 -16.407  0.00  0.00    +0.100 N 
ATOM     19  O   UNL     1      -9.843   0.586 -15.221  0.00  0.00    +0.043 OA
ATOM     20  O   UNL     1      -9.681   0.211 -17.384  0.00  0.00    -0.575 OA
ENDBRANCH  14  18
TORSDOF 1
ENDMDL
MODEL 6
REMARK VINA RESULT:      -5.7      3.271      4.348
REMARK  Name = min_compound971.pdb
REMARK  2 active torsions:
REMARK  status: ('A' for Active; 'I' for Inactive)
REMARK    1  A    between atoms: _7  and  _17
REMARK    2  A    between atoms: _9  and  _20
REMARK                            x       y       z     vdW  Elec       q    Type
REMARK                         _______ _______ _______ _____ _____    ______ ____
ROOT
ATOM      1  C   UNL     1     -14.950   6.916 -16.234  0.00  0.00    +0.137 C 
ATOM      2  N   UNL     1     -14.746   5.528 -15.892  0.00  0.00    -0.223 N 
ATOM      3  C   UNL     1     -15.222   5.283 -14.583  0.00  0.00    +0.317 C 
ATOM      4  O   UNL     1     -14.993   4.288 -13.913  0.00  0.00    -0.252 OA
ATOM      5  N   UNL     1     -15.979   6.411 -14.205  0.00  0.00    -0.231 N 
ATOM      6  C   UNL     1     -16.685   6.561 -13.029  0.00  0.00    +0.191 A 
ATOM      7  N   UNL     1     -17.436   7.613 -12.763  0.00  0.00    -0.126 NA
ATOM      8  N   UNL     1     -18.054   7.525 -11.532  0.00  0.00    -0.148 NA
ATOM      9  C   UNL     1     -17.741   6.407 -10.915  0.00  0.00    +0.183 A 
ATOM     10  S   UNL     1     -16.675   5.391 -11.784  0.00  0.00    -0.038 S 
ATOM     11  C   UNL     1     -13.889   4.700 -16.590  0.00  0.00    +0.211 A 
ATOM     12  N   UNL     1     -13.727   3.327 -16.467  0.00  0.00    -0.257 N 
ATOM     13  C   UNL     1     -14.640   2.389 -15.850  0.00  0.00    +0.158 C 
ATOM     14  C   UNL     1     -12.662   2.992 -17.272  0.00  0.00    +0.369 A 
ATOM     15  C   UNL     1     -12.327   4.124 -17.963  0.00  0.00    +0.219 A 
ATOM     16  N   UNL     1     -13.115   5.165 -17.557  0.00  0.00    -0.215 NA
ATOM     17  C   UNL     1     -16.030   7.373 -15.278  0.00  0.00    +0.137 C 
ENDROOT
BRANCH  14  18
ATOM     18  N   UNL     1     -12.081   1.701 -17.374  0.00  0.00    +0.100 N 
ATOM     19  O   UNL     1     -11.533   1.237 -16.367  0.00  0.00    +0.043 OA
ATOM     20  O   UNL     1     -12.159   1.149 -18.477  0.00  0.00    -0.575 OA
ENDBRANCH  14  18
TORSDOF 1
ENDMDL
MODEL 7
REMARK VINA RESULT:      -5.7      9.292      9.899
REMARK  Name = min_compound971.pdb
REMARK  2 active torsions:
REMARK  status: ('A' for Active; 'I' for Inactive)
REMARK    1  A    between atoms: _7  and  _17
REMARK    2  A    between atoms: _9  and  _20
REMARK                            x       y       z     vdW  Elec       q    Type
REMARK                         _______ _______ _______ _____ _____    ______ ____
ROOT
ATOM      1  C   UNL     1     -18.010   4.069  -6.659  0.00  0.00    +0.137 C 
ATOM      2  N   UNL     1     -16.960   3.154  -7.040  0.00  0.00    -0.223 N 
ATOM      3  C   UNL     1     -16.580   3.393  -8.381  0.00  0.00    +0.317 C 
ATOM      4  O   UNL     1     -15.897   2.655  -9.074  0.00  0.00    -0.252 OA
ATOM      5  N   UNL     1     -17.162   4.622  -8.758  0.00  0.00    -0.231 N 
ATOM      6  C   UNL     1     -16.988   5.268  -9.964  0.00  0.00    +0.191 A 
ATOM      7  N   UNL     1     -17.501   6.454 -10.232  0.00  0.00    -0.126 NA
ATOM      8  N   UNL     1     -17.175   6.899 -11.497  0.00  0.00    -0.148 NA
ATOM      9  C   UNL     1     -16.429   6.027 -12.137  0.00  0.00    +0.183 A 
ATOM     10  S   UNL     1     -16.075   4.608 -11.249  0.00  0.00    -0.038 S 
ATOM     11  C   UNL     1     -16.668   2.007  -6.327  0.00  0.00    +0.211 A 
ATOM     12  N   UNL     1     -15.595   1.141  -6.492  0.00  0.00    -0.257 N 
ATOM     13  C   UNL     1     -14.356   1.404  -7.191  0.00  0.00    +0.158 C 
ATOM     14  C   UNL     1     -15.824   0.082  -5.643  0.00  0.00    +0.369 A 
ATOM     15  C   UNL     1     -16.918   0.414  -4.893  0.00  0.00    +0.219 A 
ATOM     16  N   UNL     1     -17.411   1.622  -5.303  0.00  0.00    -0.215 NA
ATOM     17  C   UNL     1     -17.887   5.202  -7.654  0.00  0.00    +0.137 C 
ENDROOT
BRANCH  14  18
ATOM     18  N   UNL     1     -15.028  -1.091  -5.557  0.00  0.00    +0.100 N 
ATOM     19  O   UNL     1     -14.971  -1.820  -6.554  0.00  0.00    +0.043 OA
ATOM     20  O   UNL     1     -14.464  -1.294  -4.476  0.00  0.00    -0.575 OA
ENDBRANCH  14  18
TORSDOF 1
ENDMDL
MODEL 8
REMARK VINA RESULT:      -5.7      2.706      3.681
REMARK  Name = min_compound971.pdb
REMARK  2 active torsions:
REMARK  status: ('A' for Active; 'I' for Inactive)
REMARK    1  A    between atoms: _7  and  _17
REMARK    2  A    between atoms: _9  and  _20
REMARK                            x       y       z     vdW  Elec       q    Type
REMARK                         _______ _______ _______ _____ _____    ______ ____
ROOT
ATOM      1  C   UNL     1     -15.559   5.231 -14.029  0.00  0.00    +0.137 C 
ATOM      2  N   UNL     1     -14.958   5.245 -15.341  0.00  0.00    -0.223 N 
ATOM      3  C   UNL     1     -15.269   6.459 -15.998  0.00  0.00    +0.317 C 
ATOM      4  O   UNL     1     -15.116   6.688 -17.187  0.00  0.00    -0.252 OA
ATOM      5  N   UNL     1     -15.808   7.324 -15.023  0.00  0.00    -0.231 N 
ATOM      6  C   UNL     1     -16.179   8.638 -15.218  0.00  0.00    +0.191 A 
ATOM      7  N   UNL     1     -16.611   9.422 -14.248  0.00  0.00    -0.126 NA
ATOM      8  N   UNL     1     -16.906  10.697 -14.687  0.00  0.00    -0.148 NA
ATOM      9  C   UNL     1     -16.688  10.823 -15.977  0.00  0.00    +0.183 A 
ATOM     10  S   UNL     1     -16.114   9.406 -16.743  0.00  0.00    -0.038 S 
ATOM     11  C   UNL     1     -14.490   4.105 -15.966  0.00  0.00    +0.211 A 
ATOM     12  N   UNL     1     -13.755   4.006 -17.139  0.00  0.00    -0.257 N 
ATOM     13  C   UNL     1     -13.007   5.055 -17.796  0.00  0.00    +0.158 C 
ATOM     14  C   UNL     1     -13.658   2.661 -17.418  0.00  0.00    +0.369 A 
ATOM     15  C   UNL     1     -14.185   2.002 -16.342  0.00  0.00    +0.219 A 
ATOM     16  N   UNL     1     -14.667   2.906 -15.436  0.00  0.00    -0.215 NA
ATOM     17  C   UNL     1     -15.812   6.692 -13.726  0.00  0.00    +0.137 C 
ENDROOT
BRANCH  14  18
ATOM     18  N   UNL     1     -13.073   2.103 -18.586  0.00  0.00    +0.100 N 
ATOM     19  O   UNL     1     -11.993   1.516 -18.461  0.00  0.00    +0.043 OA
ATOM     20  O   UNL     1     -13.693   2.266 -19.642  0.00  0.00    -0.575 OA
ENDBRANCH  14  18
TORSDOF 1
ENDMDL
MODEL 9
REMARK VINA RESULT:      -5.5      2.879      7.015
REMARK  Name = min_compound971.pdb
REMARK  2 active torsions:
REMARK  status: ('A' for Active; 'I' for Inactive)
REMARK    1  A    between atoms: _7  and  _17
REMARK    2  A    between atoms: _9  and  _20
REMARK                            x       y       z     vdW  Elec       q    Type
REMARK                         _______ _______ _______ _____ _____    ______ ____
ROOT
ATOM      1  C   UNL     1     -13.984   2.759 -19.573  0.00  0.00    +0.137 C 
ATOM      2  N   UNL     1     -13.650   3.823 -18.656  0.00  0.00    -0.223 N 
ATOM      3  C   UNL     1     -12.814   3.325 -17.628  0.00  0.00    +0.317 C 
ATOM      4  O   UNL     1     -12.547   3.897 -16.583  0.00  0.00    -0.252 OA
ATOM      5  N   UNL     1     -12.383   2.045 -18.036  0.00  0.00    -0.231 N 
ATOM      6  C   UNL     1     -11.494   1.233 -17.363  0.00  0.00    +0.191 A 
ATOM      7  N   UNL     1     -11.073   0.074 -17.831  0.00  0.00    -0.126 NA
ATOM      8  N   UNL     1     -10.176  -0.546 -16.984  0.00  0.00    -0.148 NA
ATOM      9  C   UNL     1      -9.959   0.172 -15.905  0.00  0.00    +0.183 A 
ATOM     10  S   UNL     1     -10.830   1.643 -15.843  0.00  0.00    -0.038 S 
ATOM     11  C   UNL     1     -14.347   5.014 -18.601  0.00  0.00    +0.211 A 
ATOM     12  N   UNL     1     -14.032   6.164 -17.889  0.00  0.00    -0.257 N 
ATOM     13  C   UNL     1     -12.749   6.522 -17.326  0.00  0.00    +0.158 C 
ATOM     14  C   UNL     1     -15.101   7.017 -18.046  0.00  0.00    +0.369 A 
ATOM     15  C   UNL     1     -15.934   6.432 -18.959  0.00  0.00    +0.219 A 
ATOM     16  N   UNL     1     -15.440   5.208 -19.320  0.00  0.00    -0.215 NA
ATOM     17  C   UNL     1     -12.903   1.725 -19.343  0.00  0.00    +0.137 C 
ENDROOT
BRANCH  14  18
ATOM     18  N   UNL     1     -15.252   8.274 -17.405  0.00  0.00    +0.100 N 
ATOM     19  O   UNL     1     -15.006   8.334 -16.195  0.00  0.00    +0.043 OA
ATOM     20  O   UNL     1     -15.635   9.211 -18.114  0.00  0.00    -0.575 OA
ENDBRANCH  14  18
TORSDOF 1
ENDMDL
