MODEL 1
REMARK VINA RESULT:      -6.5      0.000      0.000
REMARK  Name = min_compound920.pdb
REMARK  4 active torsions:
REMARK  status: ('A' for Active; 'I' for Inactive)
REMARK    1  A    between atoms: _6  and  _16
REMARK    2  A    between atoms: _10  and  _11
REMARK    3  A    between atoms: _12  and  _18
REMARK    4  A    between atoms: _16  and  _17
REMARK                            x       y       z     vdW  Elec       q    Type
REMARK                         _______ _______ _______ _____ _____    ______ ____
ROOT
ATOM      1  N   UNL     1     -13.649   3.813 -14.974  0.00  0.00    -0.307 N 
ATOM      2  H   UNL     1     -13.016   3.667 -14.201  0.00  0.00    +0.149 HD
ATOM      3  C   UNL     1     -13.523   3.034 -16.109  0.00  0.00    +0.254 C 
ATOM      4  O   UNL     1     -14.431   2.996 -16.938  0.00  0.00    -0.270 OA
ENDROOT
BRANCH   3   5
ATOM      5  C   UNL     1     -12.302   2.270 -16.228  0.00  0.00    +0.117 A 
ATOM      6  C   UNL     1     -10.949   2.559 -16.082  0.00  0.00    +0.081 A 
ATOM      7  C   UNL     1     -10.300   3.855 -15.761  0.00  0.00    +0.069 C 
ATOM      8  N   UNL     1     -10.100   1.473 -16.285  0.00  0.00    -0.146 NA
ATOM      9  N   UNL     1     -10.759   0.376 -16.605  0.00  0.00    -0.110 NA
ATOM     10  S   UNL     1     -12.408   0.611 -16.678  0.00  0.00    +0.041 S 
ENDBRANCH   3   5
BRANCH   1  11
ATOM     11  C   UNL     1     -14.886   4.512 -14.701  0.00  0.00    +0.144 C 
BRANCH  11  16
ATOM     12  C   UNL     1     -16.938   3.401 -11.034  0.00  0.00    +0.004 A 
ATOM     13  C   UNL     1     -17.336   2.876 -12.261  0.00  0.00    +0.020 A 
ATOM     14  C   UNL     1     -16.668   3.240 -13.436  0.00  0.00    +0.048 A 
ATOM     15 CL   UNL     1     -17.223   2.522 -14.910  0.00  0.00    -0.083 Cl
ATOM     16  C   UNL     1     -15.586   4.141 -13.415  0.00  0.00    +0.023 A 
ATOM     17  C   UNL     1     -15.201   4.638 -12.163  0.00  0.00    +0.129 A 
ATOM     18  F   UNL     1     -14.157   5.472 -12.054  0.00  0.00    -0.205 F 
ATOM     19  C   UNL     1     -15.864   4.283 -10.987  0.00  0.00    +0.039 A 
ENDBRANCH  11  16
ENDBRANCH   1  11
TORSDOF 3
ENDMDL
MODEL 2
REMARK VINA RESULT:      -6.3      4.267      6.697
REMARK  Name = min_compound920.pdb
REMARK  4 active torsions:
REMARK  status: ('A' for Active; 'I' for Inactive)
REMARK    1  A    between atoms: _6  and  _16
REMARK    2  A    between atoms: _10  and  _11
REMARK    3  A    between atoms: _12  and  _18
REMARK    4  A    between atoms: _16  and  _17
REMARK                            x       y       z     vdW  Elec       q    Type
REMARK                         _______ _______ _______ _____ _____    ______ ____
ROOT
ATOM      1  N   UNL     1     -14.802   5.830 -16.632  0.00  0.00    -0.307 N 
ATOM      2  H   UNL     1     -15.245   5.322 -15.880  0.00  0.00    +0.149 HD
ATOM      3  C   UNL     1     -14.697   7.205 -16.551  0.00  0.00    +0.254 C 
ATOM      4  O   UNL     1     -13.933   7.814 -17.299  0.00  0.00    -0.270 OA
ENDROOT
BRANCH   3   5
ATOM      5  C   UNL     1     -15.497   7.849 -15.534  0.00  0.00    +0.117 A 
ATOM      6  C   UNL     1     -15.923   7.497 -14.257  0.00  0.00    +0.081 A 
ATOM      7  C   UNL     1     -15.688   6.238 -13.507  0.00  0.00    +0.069 C 
ATOM      8  N   UNL     1     -16.690   8.467 -13.615  0.00  0.00    -0.146 NA
ATOM      9  N   UNL     1     -16.883   9.532 -14.370  0.00  0.00    -0.110 NA
ATOM     10  S   UNL     1     -16.160   9.403 -15.866  0.00  0.00    +0.041 S 
ENDBRANCH   3   5
BRANCH   1  11
ATOM     11  C   UNL     1     -13.946   5.083 -17.529  0.00  0.00    +0.144 C 
BRANCH  11  16
ATOM     12  C   UNL     1     -10.465   3.213 -15.720  0.00  0.00    +0.004 A 
ATOM     13  C   UNL     1     -11.700   2.570 -15.719  0.00  0.00    +0.020 A 
ATOM     14  C   UNL     1     -12.815   3.181 -16.307  0.00  0.00    +0.048 A 
ATOM     15 CL   UNL     1     -14.303   2.298 -16.273  0.00  0.00    -0.083 Cl
ATOM     16  C   UNL     1     -12.724   4.453 -16.905  0.00  0.00    +0.023 A 
ATOM     17  C   UNL     1     -11.463   5.064 -16.901  0.00  0.00    +0.129 A 
ATOM     18  F   UNL     1     -11.285   6.259 -17.484  0.00  0.00    -0.205 F 
ATOM     19  C   UNL     1     -10.348   4.464 -16.316  0.00  0.00    +0.039 A 
ENDBRANCH  11  16
ENDBRANCH   1  11
TORSDOF 3
ENDMDL
MODEL 3
REMARK VINA RESULT:      -6.3      7.026      9.061
REMARK  Name = min_compound920.pdb
REMARK  4 active torsions:
REMARK  status: ('A' for Active; 'I' for Inactive)
REMARK    1  A    between atoms: _6  and  _16
REMARK    2  A    between atoms: _10  and  _11
REMARK    3  A    between atoms: _12  and  _18
REMARK    4  A    between atoms: _16  and  _17
REMARK                            x       y       z     vdW  Elec       q    Type
REMARK                         _______ _______ _______ _____ _____    ______ ____
ROOT
ATOM      1  N   UNL     1     -17.245   3.268  -6.779  0.00  0.00    -0.307 N 
ATOM      2  H   UNL     1     -17.120   4.092  -6.207  0.00  0.00    +0.149 HD
ATOM      3  C   UNL     1     -17.106   3.369  -8.150  0.00  0.00    +0.254 C 
ATOM      4  O   UNL     1     -16.979   2.355  -8.835  0.00  0.00    -0.270 OA
ENDROOT
BRANCH   3   5
ATOM      5  C   UNL     1     -17.089   4.707  -8.695  0.00  0.00    +0.117 A 
ATOM      6  C   UNL     1     -16.465   5.312  -9.781  0.00  0.00    +0.081 A 
ATOM      7  C   UNL     1     -15.528   4.721 -10.769  0.00  0.00    +0.069 C 
ATOM      8  N   UNL     1     -16.758   6.666  -9.936  0.00  0.00    -0.146 NA
ATOM      9  N   UNL     1     -17.563   7.115  -8.992  0.00  0.00    -0.110 NA
ATOM     10  S   UNL     1     -17.987   5.938  -7.891  0.00  0.00    +0.041 S 
ENDBRANCH   3   5
BRANCH   1  11
ATOM     11  C   UNL     1     -17.144   1.981  -6.126  0.00  0.00    +0.144 C 
BRANCH  11  16
ATOM     12  C   UNL     1     -13.425   1.175  -4.025  0.00  0.00    +0.004 A 
ATOM     13  C   UNL     1     -13.790   0.425  -5.140  0.00  0.00    +0.020 A 
ATOM     14  C   UNL     1     -14.990   0.694  -5.811  0.00  0.00    +0.048 A 
ATOM     15 CL   UNL     1     -15.350  -0.279  -7.196  0.00  0.00    -0.083 Cl
ATOM     16  C   UNL     1     -15.857   1.717  -5.380  0.00  0.00    +0.023 A 
ATOM     17  C   UNL     1     -15.451   2.461  -4.265  0.00  0.00    +0.129 A 
ATOM     18  F   UNL     1     -16.204   3.477  -3.815  0.00  0.00    -0.205 F 
ATOM     19  C   UNL     1     -14.259   2.199  -3.589  0.00  0.00    +0.039 A 
ENDBRANCH  11  16
ENDBRANCH   1  11
TORSDOF 3
ENDMDL
MODEL 4
REMARK VINA RESULT:      -6.3      8.776     10.411
REMARK  Name = min_compound920.pdb
REMARK  4 active torsions:
REMARK  status: ('A' for Active; 'I' for Inactive)
REMARK    1  A    between atoms: _6  and  _16
REMARK    2  A    between atoms: _10  and  _11
REMARK    3  A    between atoms: _12  and  _18
REMARK    4  A    between atoms: _16  and  _17
REMARK                            x       y       z     vdW  Elec       q    Type
REMARK                         _______ _______ _______ _____ _____    ______ ____
ROOT
ATOM      1  N   UNL     1     -15.397   1.289  -7.247  0.00  0.00    -0.307 N 
ATOM      2  H   UNL     1     -15.524   0.632  -8.004  0.00  0.00    +0.149 HD
ATOM      3  C   UNL     1     -16.492   1.967  -6.747  0.00  0.00    +0.254 C 
ATOM      4  O   UNL     1     -16.419   2.551  -5.668  0.00  0.00    -0.270 OA
ENDROOT
BRANCH   3   5
ATOM      5  C   UNL     1     -17.696   1.912  -7.545  0.00  0.00    +0.117 A 
ATOM      6  C   UNL     1     -18.787   1.051  -7.611  0.00  0.00    +0.081 A 
ATOM      7  C   UNL     1     -19.046  -0.189  -6.838  0.00  0.00    +0.069 C 
ATOM      8  N   UNL     1     -19.751   1.409  -8.551  0.00  0.00    -0.146 NA
ATOM      9  N   UNL     1     -19.418   2.497  -9.219  0.00  0.00    -0.110 NA
ATOM     10  S   UNL     1     -17.946   3.120  -8.748  0.00  0.00    +0.041 S 
ENDBRANCH   3   5
BRANCH   1  11
ATOM     11  C   UNL     1     -14.186   1.176  -6.461  0.00  0.00    +0.144 C 
BRANCH  11  16
ATOM     12  C   UNL     1     -14.392  -1.378  -2.951  0.00  0.00    +0.004 A 
ATOM     13  C   UNL     1     -14.056  -0.031  -2.834  0.00  0.00    +0.020 A 
ATOM     14  C   UNL     1     -13.994   0.784  -3.971  0.00  0.00    +0.048 A 
ATOM     15 CL   UNL     1     -13.585   2.447  -3.725  0.00  0.00    -0.083 Cl
ATOM     16  C   UNL     1     -14.262   0.271  -5.255  0.00  0.00    +0.023 A 
ATOM     17  C   UNL     1     -14.612  -1.083  -5.335  0.00  0.00    +0.129 A 
ATOM     18  F   UNL     1     -14.919  -1.638  -6.517  0.00  0.00    -0.205 F 
ATOM     19  C   UNL     1     -14.674  -1.903  -4.207  0.00  0.00    +0.039 A 
ENDBRANCH  11  16
ENDBRANCH   1  11
TORSDOF 3
ENDMDL
MODEL 5
REMARK VINA RESULT:      -6.3      4.709      6.719
REMARK  Name = min_compound920.pdb
REMARK  4 active torsions:
REMARK  status: ('A' for Active; 'I' for Inactive)
REMARK    1  A    between atoms: _6  and  _16
REMARK    2  A    between atoms: _10  and  _11
REMARK    3  A    between atoms: _12  and  _18
REMARK    4  A    between atoms: _16  and  _17
REMARK                            x       y       z     vdW  Elec       q    Type
REMARK                         _______ _______ _______ _____ _____    ______ ____
ROOT
ATOM      1  N   UNL     1     -14.848   5.700 -16.536  0.00  0.00    -0.307 N 
ATOM      2  H   UNL     1     -15.221   5.169 -15.762  0.00  0.00    +0.149 HD
ATOM      3  C   UNL     1     -14.852   7.080 -16.475  0.00  0.00    +0.254 C 
ATOM      4  O   UNL     1     -14.167   7.736 -17.258  0.00  0.00    -0.270 OA
ENDROOT
BRANCH   3   5
ATOM      5  C   UNL     1     -15.665   7.672 -15.437  0.00  0.00    +0.117 A 
ATOM      6  C   UNL     1     -16.352   8.874 -15.299  0.00  0.00    +0.081 A 
ATOM      7  C   UNL     1     -16.437  10.015 -16.245  0.00  0.00    +0.069 C 
ATOM      8  N   UNL     1     -17.035   9.016 -14.093  0.00  0.00    -0.146 NA
ATOM      9  N   UNL     1     -16.869   7.975 -13.300  0.00  0.00    -0.110 NA
ATOM     10  S   UNL     1     -15.891   6.802 -13.968  0.00  0.00    +0.041 S 
ENDBRANCH   3   5
BRANCH   1  11
ATOM     11  C   UNL     1     -13.966   5.011 -17.454  0.00  0.00    +0.144 C 
BRANCH  11  16
ATOM     12  C   UNL     1     -10.411   3.230 -15.700  0.00  0.00    +0.004 A 
ATOM     13  C   UNL     1     -11.628   2.553 -15.686  0.00  0.00    +0.020 A 
ATOM     14  C   UNL     1     -12.767   3.135 -16.256  0.00  0.00    +0.048 A 
ATOM     15 CL   UNL     1     -14.229   2.211 -16.207  0.00  0.00    -0.083 Cl
ATOM     16  C   UNL     1     -12.719   4.412 -16.849  0.00  0.00    +0.023 A 
ATOM     17  C   UNL     1     -11.476   5.057 -16.859  0.00  0.00    +0.129 A 
ATOM     18  F   UNL     1     -11.339   6.259 -17.438  0.00  0.00    -0.205 F 
ATOM     19  C   UNL     1     -10.336   4.486 -16.292  0.00  0.00    +0.039 A 
ENDBRANCH  11  16
ENDBRANCH   1  11
TORSDOF 3
ENDMDL
MODEL 6
REMARK VINA RESULT:      -6.2      3.484      6.583
REMARK  Name = min_compound920.pdb
REMARK  4 active torsions:
REMARK  status: ('A' for Active; 'I' for Inactive)
REMARK    1  A    between atoms: _6  and  _16
REMARK    2  A    between atoms: _10  and  _11
REMARK    3  A    between atoms: _12  and  _18
REMARK    4  A    between atoms: _16  and  _17
REMARK                            x       y       z     vdW  Elec       q    Type
REMARK                         _______ _______ _______ _____ _____    ______ ____
ROOT
ATOM      1  N   UNL     1     -13.916   3.580 -14.695  0.00  0.00    -0.307 N 
ATOM      2  H   UNL     1     -13.565   2.950 -13.988  0.00  0.00    +0.149 HD
ATOM      3  C   UNL     1     -14.902   4.489 -14.363  0.00  0.00    +0.254 C 
ATOM      4  O   UNL     1     -15.149   5.435 -15.109  0.00  0.00    -0.270 OA
ENDROOT
BRANCH   3   5
ATOM      5  C   UNL     1     -15.575   4.271 -13.102  0.00  0.00    +0.117 A 
ATOM      6  C   UNL     1     -16.764   3.657 -12.722  0.00  0.00    +0.081 A 
ATOM      7  C   UNL     1     -17.796   3.012 -13.571  0.00  0.00    +0.069 C 
ATOM      8  N   UNL     1     -17.010   3.672 -11.350  0.00  0.00    -0.146 NA
ATOM      9  N   UNL     1     -16.064   4.301 -10.680  0.00  0.00    -0.110 NA
ATOM     10  S   UNL     1     -14.858   4.893 -11.665  0.00  0.00    +0.041 S 
ENDBRANCH   3   5
BRANCH   1  11
ATOM     11  C   UNL     1     -13.099   3.785 -15.871  0.00  0.00    +0.144 C 
BRANCH  11  16
ATOM     12  C   UNL     1     -10.707   0.402 -17.184  0.00  0.00    +0.004 A 
ATOM     13  C   UNL     1     -10.136   1.664 -17.037  0.00  0.00    +0.020 A 
ATOM     14  C   UNL     1     -10.916   2.747 -16.612  0.00  0.00    +0.048 A 
ATOM     15 CL   UNL     1     -10.115   4.272 -16.442  0.00  0.00    -0.083 Cl
ATOM     16  C   UNL     1     -12.287   2.597 -16.328  0.00  0.00    +0.023 A 
ATOM     17  C   UNL     1     -12.824   1.311 -16.471  0.00  0.00    +0.129 A 
ATOM     18  F   UNL     1     -14.113   1.077 -16.184  0.00  0.00    -0.205 F 
ATOM     19  C   UNL     1     -12.056   0.227 -16.897  0.00  0.00    +0.039 A 
ENDBRANCH  11  16
ENDBRANCH   1  11
TORSDOF 3
ENDMDL
MODEL 7
REMARK VINA RESULT:      -6.1     11.751     13.300
REMARK  Name = min_compound920.pdb
REMARK  4 active torsions:
REMARK  status: ('A' for Active; 'I' for Inactive)
REMARK    1  A    between atoms: _6  and  _16
REMARK    2  A    between atoms: _10  and  _11
REMARK    3  A    between atoms: _12  and  _18
REMARK    4  A    between atoms: _16  and  _17
REMARK                            x       y       z     vdW  Elec       q    Type
REMARK                         _______ _______ _______ _____ _____    ______ ____
ROOT
ATOM      1  N   UNL     1     -14.347  -1.489  -2.583  0.00  0.00    -0.307 N 
ATOM      2  H   UNL     1     -13.486  -1.742  -3.047  0.00  0.00    +0.149 HD
ATOM      3  C   UNL     1     -15.267  -0.700  -3.246  0.00  0.00    +0.254 C 
ATOM      4  O   UNL     1     -16.419  -0.607  -2.826  0.00  0.00    -0.270 OA
ENDROOT
BRANCH   3   5
ATOM      5  C   UNL     1     -14.800  -0.043  -4.445  0.00  0.00    +0.117 A 
ATOM      6  C   UNL     1     -14.163   1.164  -4.714  0.00  0.00    +0.081 A 
ATOM      7  C   UNL     1     -13.764   2.240  -3.772  0.00  0.00    +0.069 C 
ATOM      8  N   UNL     1     -13.882   1.384  -6.061  0.00  0.00    -0.146 NA
ATOM      9  N   UNL     1     -14.308   0.397  -6.827  0.00  0.00    -0.110 NA
ATOM     10  S   UNL     1     -15.058  -0.815  -5.963  0.00  0.00    +0.041 S 
ENDBRANCH   3   5
BRANCH   1  11
ATOM     11  C   UNL     1     -14.753  -2.289  -1.447  0.00  0.00    +0.144 C 
BRANCH  11  16
ATOM     12  C   UNL     1     -14.340  -6.592  -1.902  0.00  0.00    +0.004 A 
ATOM     13  C   UNL     1     -15.559  -5.963  -2.143  0.00  0.00    +0.020 A 
ATOM     14  C   UNL     1     -15.681  -4.576  -1.995  0.00  0.00    +0.048 A 
ATOM     15 CL   UNL     1     -17.230  -3.883  -2.334  0.00  0.00    -0.083 Cl
ATOM     16  C   UNL     1     -14.588  -3.782  -1.598  0.00  0.00    +0.023 A 
ATOM     17  C   UNL     1     -13.373  -4.445  -1.379  0.00  0.00    +0.129 A 
ATOM     18  F   UNL     1     -12.275  -3.755  -1.034  0.00  0.00    -0.205 F 
ATOM     19  C   UNL     1     -13.243  -5.827  -1.521  0.00  0.00    +0.039 A 
ENDBRANCH  11  16
ENDBRANCH   1  11
TORSDOF 3
ENDMDL
MODEL 8
REMARK VINA RESULT:      -6.1      6.852      8.800
REMARK  Name = min_compound920.pdb
REMARK  4 active torsions:
REMARK  status: ('A' for Active; 'I' for Inactive)
REMARK    1  A    between atoms: _6  and  _16
REMARK    2  A    between atoms: _10  and  _11
REMARK    3  A    between atoms: _12  and  _18
REMARK    4  A    between atoms: _16  and  _17
REMARK                            x       y       z     vdW  Elec       q    Type
REMARK                         _______ _______ _______ _____ _____    ______ ____
ROOT
ATOM      1  N   UNL     1     -17.329   3.304  -7.158  0.00  0.00    -0.307 N 
ATOM      2  H   UNL     1     -16.927   4.057  -6.617  0.00  0.00    +0.149 HD
ATOM      3  C   UNL     1     -17.403   3.421  -8.532  0.00  0.00    +0.254 C 
ATOM      4  O   UNL     1     -17.626   2.430  -9.227  0.00  0.00    -0.270 OA
ENDROOT
BRANCH   3   5
ATOM      5  C   UNL     1     -17.173   4.740  -9.076  0.00  0.00    +0.117 A 
ATOM      6  C   UNL     1     -16.359   5.256 -10.078  0.00  0.00    +0.081 A 
ATOM      7  C   UNL     1     -15.379   4.551 -10.942  0.00  0.00    +0.069 C 
ATOM      8  N   UNL     1     -16.481   6.631 -10.273  0.00  0.00    -0.146 NA
ATOM      9  N   UNL     1     -17.341   7.179  -9.436  0.00  0.00    -0.110 NA
ATOM     10  S   UNL     1     -18.022   6.074  -8.392  0.00  0.00    +0.041 S 
ENDBRANCH   3   5
BRANCH   1  11
ATOM     11  C   UNL     1     -17.416   2.003  -6.528  0.00  0.00    +0.144 C 
BRANCH  11  16
ATOM     12  C   UNL     1     -13.628   0.162  -5.453  0.00  0.00    +0.004 A 
ATOM     13  C   UNL     1     -14.194   1.150  -4.650  0.00  0.00    +0.020 A 
ATOM     14  C   UNL     1     -15.415   1.735  -5.005  0.00  0.00    +0.048 A 
ATOM     15 CL   UNL     1     -16.048   2.941  -3.937  0.00  0.00    -0.083 Cl
ATOM     16  C   UNL     1     -16.100   1.351  -6.174  0.00  0.00    +0.023 A 
ATOM     17  C   UNL     1     -15.511   0.344  -6.950  0.00  0.00    +0.129 A 
ATOM     18  F   UNL     1     -16.119  -0.103  -8.058  0.00  0.00    -0.205 F 
ATOM     19  C   UNL     1     -14.293  -0.243  -6.605  0.00  0.00    +0.039 A 
ENDBRANCH  11  16
ENDBRANCH   1  11
TORSDOF 3
ENDMDL
MODEL 9
REMARK VINA RESULT:      -6.1      1.791      2.043
REMARK  Name = min_compound920.pdb
REMARK  4 active torsions:
REMARK  status: ('A' for Active; 'I' for Inactive)
REMARK    1  A    between atoms: _6  and  _16
REMARK    2  A    between atoms: _10  and  _11
REMARK    3  A    between atoms: _12  and  _18
REMARK    4  A    between atoms: _16  and  _17
REMARK                            x       y       z     vdW  Elec       q    Type
REMARK                         _______ _______ _______ _____ _____    ______ ____
ROOT
ATOM      1  N   UNL     1     -13.753   3.814 -15.463  0.00  0.00    -0.307 N 
ATOM      2  H   UNL     1     -13.204   3.799 -14.615  0.00  0.00    +0.149 HD
ATOM      3  C   UNL     1     -13.497   2.884 -16.452  0.00  0.00    +0.254 C 
ATOM      4  O   UNL     1     -14.310   2.701 -17.356  0.00  0.00    -0.270 OA
ENDROOT
BRANCH   3   5
ATOM      5  C   UNL     1     -12.261   2.145 -16.330  0.00  0.00    +0.117 A 
ATOM      6  C   UNL     1     -10.950   2.478 -16.004  0.00  0.00    +0.081 A 
ATOM      7  C   UNL     1     -10.376   3.809 -15.687  0.00  0.00    +0.069 C 
ATOM      8  N   UNL     1     -10.064   1.402 -15.997  0.00  0.00    -0.146 NA
ATOM      9  N   UNL     1     -10.651   0.269 -16.330  0.00  0.00    -0.110 NA
ATOM     10  S   UNL     1     -12.273   0.456 -16.667  0.00  0.00    +0.041 S 
ENDBRANCH   3   5
BRANCH   1  11
ATOM     11  C   UNL     1     -15.021   4.511 -15.425  0.00  0.00    +0.144 C 
BRANCH  11  16
ATOM     12  C   UNL     1     -17.508   3.814 -11.930  0.00  0.00    +0.004 A 
ATOM     13  C   UNL     1     -16.994   5.081 -12.198  0.00  0.00    +0.020 A 
ATOM     14  C   UNL     1     -16.195   5.295 -13.328  0.00  0.00    +0.048 A 
ATOM     15 CL   UNL     1     -15.618   6.905 -13.588  0.00  0.00    -0.083 Cl
ATOM     16  C   UNL     1     -15.885   4.246 -14.216  0.00  0.00    +0.023 A 
ATOM     17  C   UNL     1     -16.431   2.989 -13.924  0.00  0.00    +0.129 A 
ATOM     18  F   UNL     1     -16.213   1.948 -14.741  0.00  0.00    -0.205 F 
ATOM     19  C   UNL     1     -17.225   2.766 -12.799  0.00  0.00    +0.039 A 
ENDBRANCH  11  16
ENDBRANCH   1  11
TORSDOF 3
ENDMDL
