MODEL 1
REMARK VINA RESULT:      -8.2      0.000      0.000
REMARK  Name = min_compound955.pdb
REMARK  3 active torsions:
REMARK  status: ('A' for Active; 'I' for Inactive)
REMARK    1  A    between atoms: _11  and  _19
REMARK    2  A    between atoms: _12  and  _20
REMARK    3  A    between atoms: _15  and  _20
REMARK                            x       y       z     vdW  Elec       q    Type
REMARK                         _______ _______ _______ _____ _____    ______ ____
ROOT
ATOM      1  O   UNL     1     -10.683   4.155 -17.473  0.00  0.00    -0.619 OA
ATOM      2  N   UNL     1     -11.530   3.261 -17.124  0.00  0.00    -0.157 N 
ATOM      3  C   UNL     1     -11.122   1.914 -17.041  0.00  0.00    +0.292 A 
ATOM      4  C   UNL     1     -12.046   0.928 -16.650  0.00  0.00    +0.292 A 
ATOM      5  C   UNL     1     -11.627  -0.422 -16.613  0.00  0.00    +0.086 A 
ATOM      6  C   UNL     1     -10.324  -0.788 -16.950  0.00  0.00    +0.007 A 
ATOM      7  C   UNL     1      -9.409   0.188 -17.325  0.00  0.00    +0.007 A 
ATOM      8  N   UNL     1     -13.366   1.296 -16.315  0.00  0.00    -0.157 N 
ATOM      9  O   UNL     1     -14.203   0.387 -15.978  0.00  0.00    -0.619 OA
ATOM     10  C   UNL     1     -13.773   2.637 -16.380  0.00  0.00    +0.268 A 
ATOM     11  C   UNL     1      -9.802   1.526 -17.367  0.00  0.00    +0.086 A 
ATOM     12  C   UNL     1     -12.857   3.613 -16.844  0.00  0.00    +0.261 A 
ATOM     13  C   UNL     1     -13.209   5.056 -17.058  0.00  0.00    +0.130 C 
ENDROOT
BRANCH  10  14
ATOM     14  C   UNL     1     -15.237   2.858 -16.062  0.00  0.00    +0.150 C 
BRANCH  14  15
ATOM     15  C   UNL     1     -15.644   3.241 -14.657  0.00  0.00    -0.037 A 
ATOM     16  C   UNL     1     -16.714   2.575 -14.036  0.00  0.00    +0.004 A 
ATOM     17  C   UNL     1     -17.093   2.894 -12.733  0.00  0.00    +0.000 A 
ATOM     18  C   UNL     1     -16.400   3.875 -12.028  0.00  0.00    +0.000 A 
ATOM     19  C   UNL     1     -15.321   4.528 -12.623  0.00  0.00    +0.000 A 
ATOM     20  C   UNL     1     -14.937   4.207 -13.928  0.00  0.00    +0.004 A 
ENDBRANCH  14  15
ENDBRANCH  10  14
TORSDOF 2
ENDMDL
MODEL 2
REMARK VINA RESULT:      -7.7      2.722      6.219
REMARK  Name = min_compound955.pdb
REMARK  3 active torsions:
REMARK  status: ('A' for Active; 'I' for Inactive)
REMARK    1  A    between atoms: _11  and  _19
REMARK    2  A    between atoms: _12  and  _20
REMARK    3  A    between atoms: _15  and  _20
REMARK                            x       y       z     vdW  Elec       q    Type
REMARK                         _______ _______ _______ _____ _____    ______ ____
ROOT
ATOM      1  O   UNL     1     -15.340   3.388 -17.710  0.00  0.00    -0.619 OA
ATOM      2  N   UNL     1     -14.157   3.752 -17.389  0.00  0.00    -0.157 N 
ATOM      3  C   UNL     1     -13.656   4.981 -17.864  0.00  0.00    +0.292 A 
ATOM      4  C   UNL     1     -12.358   5.390 -17.507  0.00  0.00    +0.292 A 
ATOM      5  C   UNL     1     -11.860   6.607 -18.028  0.00  0.00    +0.086 A 
ATOM      6  C   UNL     1     -12.627   7.402 -18.879  0.00  0.00    +0.007 A 
ATOM      7  C   UNL     1     -13.913   7.002 -19.221  0.00  0.00    +0.007 A 
ATOM      8  N   UNL     1     -11.577   4.583 -16.653  0.00  0.00    -0.157 N 
ATOM      9  O   UNL     1     -10.391   4.958 -16.349  0.00  0.00    -0.619 OA
ATOM     10  C   UNL     1     -12.078   3.368 -16.163  0.00  0.00    +0.268 A 
ATOM     11  C   UNL     1     -14.424   5.806 -18.717  0.00  0.00    +0.086 A 
ATOM     12  C   UNL     1     -13.356   2.929 -16.585  0.00  0.00    +0.261 A 
ATOM     13  C   UNL     1     -13.949   1.601 -16.216  0.00  0.00    +0.130 C 
ENDROOT
BRANCH  10  14
ATOM     14  C   UNL     1     -11.092   2.585 -15.320  0.00  0.00    +0.150 C 
BRANCH  14  15
ATOM     15  C   UNL     1     -10.409   1.372 -15.909  0.00  0.00    -0.037 A 
ATOM     16  C   UNL     1     -10.355   0.176 -15.172  0.00  0.00    +0.004 A 
ATOM     17  C   UNL     1      -9.750  -0.962 -15.704  0.00  0.00    +0.000 A 
ATOM     18  C   UNL     1      -9.202  -0.925 -16.983  0.00  0.00    +0.000 A 
ATOM     19  C   UNL     1      -9.269   0.247 -17.735  0.00  0.00    +0.000 A 
ATOM     20  C   UNL     1      -9.877   1.389 -17.206  0.00  0.00    +0.004 A 
ENDBRANCH  14  15
ENDBRANCH  10  14
TORSDOF 2
ENDMDL
MODEL 3
REMARK VINA RESULT:      -7.4      2.341      6.189
REMARK  Name = min_compound955.pdb
REMARK  3 active torsions:
REMARK  status: ('A' for Active; 'I' for Inactive)
REMARK    1  A    between atoms: _11  and  _19
REMARK    2  A    between atoms: _12  and  _20
REMARK    3  A    between atoms: _15  and  _20
REMARK                            x       y       z     vdW  Elec       q    Type
REMARK                         _______ _______ _______ _____ _____    ______ ____
ROOT
ATOM      1  O   UNL     1     -16.185   4.277 -14.597  0.00  0.00    -0.619 OA
ATOM      2  N   UNL     1     -15.320   4.328 -15.539  0.00  0.00    -0.157 N 
ATOM      3  C   UNL     1     -14.949   5.579 -16.071  0.00  0.00    +0.292 A 
ATOM      4  C   UNL     1     -13.992   5.643 -17.101  0.00  0.00    +0.292 A 
ATOM      5  C   UNL     1     -13.664   6.904 -17.650  0.00  0.00    +0.086 A 
ATOM      6  C   UNL     1     -14.266   8.076 -17.190  0.00  0.00    +0.007 A 
ATOM      7  C   UNL     1     -15.202   8.013 -16.165  0.00  0.00    +0.007 A 
ATOM      8  N   UNL     1     -13.389   4.458 -17.573  0.00  0.00    -0.157 N 
ATOM      9  O   UNL     1     -12.532   4.527 -18.523  0.00  0.00    -0.619 OA
ATOM     10  C   UNL     1     -13.742   3.212 -17.034  0.00  0.00    +0.268 A 
ATOM     11  C   UNL     1     -15.539   6.779 -15.609  0.00  0.00    +0.086 A 
ATOM     12  C   UNL     1     -14.758   3.151 -16.049  0.00  0.00    +0.261 A 
ATOM     13  C   UNL     1     -15.295   1.871 -15.479  0.00  0.00    +0.130 C 
ENDROOT
BRANCH  10  14
ATOM     14  C   UNL     1     -13.061   2.033 -17.697  0.00  0.00    +0.150 C 
BRANCH  14  15
ATOM     15  C   UNL     1     -11.981   1.282 -16.951  0.00  0.00    -0.037 A 
ATOM     16  C   UNL     1     -11.717  -0.060 -17.274  0.00  0.00    +0.004 A 
ATOM     17  C   UNL     1     -10.711  -0.767 -16.616  0.00  0.00    +0.000 A 
ATOM     18  C   UNL     1      -9.947  -0.139 -15.636  0.00  0.00    +0.000 A 
ATOM     19  C   UNL     1     -10.183   1.199 -15.321  0.00  0.00    +0.000 A 
ATOM     20  C   UNL     1     -11.189   1.911 -15.981  0.00  0.00    +0.004 A 
ENDBRANCH  14  15
ENDBRANCH  10  14
TORSDOF 2
ENDMDL
MODEL 4
REMARK VINA RESULT:      -7.4      1.718      1.954
REMARK  Name = min_compound955.pdb
REMARK  3 active torsions:
REMARK  status: ('A' for Active; 'I' for Inactive)
REMARK    1  A    between atoms: _11  and  _19
REMARK    2  A    between atoms: _12  and  _20
REMARK    3  A    between atoms: _15  and  _20
REMARK                            x       y       z     vdW  Elec       q    Type
REMARK                         _______ _______ _______ _____ _____    ______ ____
ROOT
ATOM      1  O   UNL     1     -12.713   1.346 -19.684  0.00  0.00    -0.619 OA
ATOM      2  N   UNL     1     -12.508   1.711 -18.475  0.00  0.00    -0.157 N 
ATOM      3  C   UNL     1     -11.524   1.054 -17.710  0.00  0.00    +0.292 A 
ATOM      4  C   UNL     1     -11.289   1.457 -16.383  0.00  0.00    +0.292 A 
ATOM      5  C   UNL     1     -10.326   0.757 -15.619  0.00  0.00    +0.086 A 
ATOM      6  C   UNL     1      -9.610  -0.313 -16.156  0.00  0.00    +0.007 A 
ATOM      7  C   UNL     1      -9.835  -0.702 -17.470  0.00  0.00    +0.007 A 
ATOM      8  N   UNL     1     -12.017   2.534 -15.836  0.00  0.00    -0.157 N 
ATOM      9  O   UNL     1     -11.806   2.879 -14.620  0.00  0.00    -0.619 OA
ATOM     10  C   UNL     1     -12.985   3.203 -16.599  0.00  0.00    +0.268 A 
ATOM     11  C   UNL     1     -10.780  -0.025 -18.241  0.00  0.00    +0.086 A 
ATOM     12  C   UNL     1     -13.267   2.744 -17.909  0.00  0.00    +0.261 A 
ATOM     13  C   UNL     1     -14.353   3.308 -18.778  0.00  0.00    +0.130 C 
ENDROOT
BRANCH  10  14
ATOM     14  C   UNL     1     -13.730   4.285 -15.846  0.00  0.00    +0.150 C 
BRANCH  14  15
ATOM     15  C   UNL     1     -14.836   3.900 -14.890  0.00  0.00    -0.037 A 
ATOM     16  C   UNL     1     -15.730   2.872 -15.235  0.00  0.00    +0.004 A 
ATOM     17  C   UNL     1     -16.743   2.484 -14.359  0.00  0.00    +0.000 A 
ATOM     18  C   UNL     1     -16.869   3.109 -13.121  0.00  0.00    +0.000 A 
ATOM     19  C   UNL     1     -15.976   4.115 -12.755  0.00  0.00    +0.000 A 
ATOM     20  C   UNL     1     -14.957   4.504 -13.630  0.00  0.00    +0.004 A 
ENDBRANCH  14  15
ENDBRANCH  10  14
TORSDOF 2
ENDMDL
MODEL 5
REMARK VINA RESULT:      -7.4      2.625      5.921
REMARK  Name = min_compound955.pdb
REMARK  3 active torsions:
REMARK  status: ('A' for Active; 'I' for Inactive)
REMARK    1  A    between atoms: _11  and  _19
REMARK    2  A    between atoms: _12  and  _20
REMARK    3  A    between atoms: _15  and  _20
REMARK                            x       y       z     vdW  Elec       q    Type
REMARK                         _______ _______ _______ _____ _____    ______ ____
ROOT
ATOM      1  O   UNL     1     -11.413   6.718 -17.913  0.00  0.00    -0.619 OA
ATOM      2  N   UNL     1     -12.077   5.793 -17.330  0.00  0.00    -0.157 N 
ATOM      3  C   UNL     1     -13.486   5.815 -17.380  0.00  0.00    +0.292 A 
ATOM      4  C   UNL     1     -14.221   4.796 -16.747  0.00  0.00    +0.292 A 
ATOM      5  C   UNL     1     -15.634   4.858 -16.774  0.00  0.00    +0.086 A 
ATOM      6  C   UNL     1     -16.304   5.902 -17.413  0.00  0.00    +0.007 A 
ATOM      7  C   UNL     1     -15.576   6.901 -18.047  0.00  0.00    +0.007 A 
ATOM      8  N   UNL     1     -13.546   3.744 -16.094  0.00  0.00    -0.157 N 
ATOM      9  O   UNL     1     -14.227   2.831 -15.507  0.00  0.00    -0.619 OA
ATOM     10  C   UNL     1     -12.144   3.708 -16.057  0.00  0.00    +0.268 A 
ATOM     11  C   UNL     1     -14.182   6.858 -18.033  0.00  0.00    +0.086 A 
ATOM     12  C   UNL     1     -11.413   4.776 -16.633  0.00  0.00    +0.261 A 
ATOM     13  C   UNL     1      -9.920   4.902 -16.560  0.00  0.00    +0.130 C 
ENDROOT
BRANCH  10  14
ATOM     14  C   UNL     1     -11.573   2.557 -15.256  0.00  0.00    +0.150 C 
BRANCH  14  15
ATOM     15  C   UNL     1     -11.023   1.348 -15.979  0.00  0.00    -0.037 A 
ATOM     16  C   UNL     1     -11.387   1.110 -17.315  0.00  0.00    +0.004 A 
ATOM     17  C   UNL     1     -10.874   0.014 -18.009  0.00  0.00    +0.000 A 
ATOM     18  C   UNL     1      -9.981  -0.851 -17.381  0.00  0.00    +0.000 A 
ATOM     19  C   UNL     1      -9.593  -0.613 -16.063  0.00  0.00    +0.000 A 
ATOM     20  C   UNL     1     -10.102   0.486 -15.366  0.00  0.00    +0.004 A 
ENDBRANCH  14  15
ENDBRANCH  10  14
TORSDOF 2
ENDMDL
MODEL 6
REMARK VINA RESULT:      -7.3      2.023      5.886
REMARK  Name = min_compound955.pdb
REMARK  3 active torsions:
REMARK  status: ('A' for Active; 'I' for Inactive)
REMARK    1  A    between atoms: _11  and  _19
REMARK    2  A    between atoms: _12  and  _20
REMARK    3  A    between atoms: _15  and  _20
REMARK                            x       y       z     vdW  Elec       q    Type
REMARK                         _______ _______ _______ _____ _____    ______ ____
ROOT
ATOM      1  O   UNL     1     -15.146   6.675 -15.448  0.00  0.00    -0.619 OA
ATOM      2  N   UNL     1     -15.174   5.396 -15.458  0.00  0.00    -0.157 N 
ATOM      3  C   UNL     1     -16.016   4.714 -14.556  0.00  0.00    +0.292 A 
ATOM      4  C   UNL     1     -16.057   3.308 -14.568  0.00  0.00    +0.292 A 
ATOM      5  C   UNL     1     -16.877   2.643 -13.627  0.00  0.00    +0.086 A 
ATOM      6  C   UNL     1     -17.640   3.351 -12.698  0.00  0.00    +0.007 A 
ATOM      7  C   UNL     1     -17.607   4.740 -12.695  0.00  0.00    +0.007 A 
ATOM      8  N   UNL     1     -15.281   2.590 -15.502  0.00  0.00    -0.157 N 
ATOM      9  O   UNL     1     -15.314   1.310 -15.491  0.00  0.00    -0.619 OA
ATOM     10  C   UNL     1     -14.456   3.265 -16.413  0.00  0.00    +0.268 A 
ATOM     11  C   UNL     1     -16.806   5.415 -13.615  0.00  0.00    +0.086 A 
ATOM     12  C   UNL     1     -14.364   4.676 -16.346  0.00  0.00    +0.261 A 
ATOM     13  C   UNL     1     -13.436   5.496 -17.193  0.00  0.00    +0.130 C 
ENDROOT
BRANCH  10  14
ATOM     14  C   UNL     1     -13.632   2.352 -17.298  0.00  0.00    +0.150 C 
BRANCH  14  15
ATOM     15  C   UNL     1     -12.426   1.647 -16.720  0.00  0.00    -0.037 A 
ATOM     16  C   UNL     1     -12.192   0.297 -17.034  0.00  0.00    +0.004 A 
ATOM     17  C   UNL     1     -11.074  -0.368 -16.532  0.00  0.00    +0.000 A 
ATOM     18  C   UNL     1     -10.168   0.309 -15.720  0.00  0.00    +0.000 A 
ATOM     19  C   UNL     1     -10.375   1.655 -15.418  0.00  0.00    +0.000 A 
ATOM     20  C   UNL     1     -11.493   2.325 -15.923  0.00  0.00    +0.004 A 
ENDBRANCH  14  15
ENDBRANCH  10  14
TORSDOF 2
ENDMDL
MODEL 7
REMARK VINA RESULT:      -7.2     12.880     15.165
REMARK  Name = min_compound955.pdb
REMARK  3 active torsions:
REMARK  status: ('A' for Active; 'I' for Inactive)
REMARK    1  A    between atoms: _11  and  _19
REMARK    2  A    between atoms: _12  and  _20
REMARK    3  A    between atoms: _15  and  _20
REMARK                            x       y       z     vdW  Elec       q    Type
REMARK                         _______ _______ _______ _____ _____    ______ ____
ROOT
ATOM      1  O   UNL     1     -17.814  -5.394  -2.601  0.00  0.00    -0.619 OA
ATOM      2  N   UNL     1     -16.631  -4.977  -2.353  0.00  0.00    -0.157 N 
ATOM      3  C   UNL     1     -15.602  -5.911  -2.116  0.00  0.00    +0.292 A 
ATOM      4  C   UNL     1     -14.297  -5.458  -1.851  0.00  0.00    +0.292 A 
ATOM      5  C   UNL     1     -13.288  -6.411  -1.576  0.00  0.00    +0.086 A 
ATOM      6  C   UNL     1     -13.562  -7.778  -1.566  0.00  0.00    +0.007 A 
ATOM      7  C   UNL     1     -14.850  -8.225  -1.839  0.00  0.00    +0.007 A 
ATOM      8  N   UNL     1     -14.019  -4.075  -1.853  0.00  0.00    -0.157 N 
ATOM      9  O   UNL     1     -12.830  -3.675  -1.593  0.00  0.00    -0.619 OA
ATOM     10  C   UNL     1     -15.035  -3.143  -2.106  0.00  0.00    +0.268 A 
ATOM     11  C   UNL     1     -15.859  -7.302  -2.114  0.00  0.00    +0.086 A 
ATOM     12  C   UNL     1     -16.360  -3.604  -2.300  0.00  0.00    +0.261 A 
ATOM     13  C   UNL     1     -17.545  -2.698  -2.469  0.00  0.00    +0.130 C 
ENDROOT
BRANCH  10  14
ATOM     14  C   UNL     1     -14.593  -1.698  -2.000  0.00  0.00    +0.150 C 
BRANCH  14  15
ATOM     15  C   UNL     1     -14.403  -0.884  -3.259  0.00  0.00    -0.037 A 
ATOM     16  C   UNL     1     -13.982   0.454  -3.167  0.00  0.00    +0.004 A 
ATOM     17  C   UNL     1     -13.778   1.218  -4.315  0.00  0.00    +0.000 A 
ATOM     18  C   UNL     1     -13.979   0.652  -5.572  0.00  0.00    +0.000 A 
ATOM     19  C   UNL     1     -14.375  -0.681  -5.679  0.00  0.00    +0.000 A 
ATOM     20  C   UNL     1     -14.577  -1.450  -4.530  0.00  0.00    +0.004 A 
ENDBRANCH  14  15
ENDBRANCH  10  14
TORSDOF 2
ENDMDL
MODEL 8
REMARK VINA RESULT:      -7.2      7.847     10.385
REMARK  Name = min_compound955.pdb
REMARK  3 active torsions:
REMARK  status: ('A' for Active; 'I' for Inactive)
REMARK    1  A    between atoms: _11  and  _19
REMARK    2  A    between atoms: _12  and  _20
REMARK    3  A    between atoms: _15  and  _20
REMARK                            x       y       z     vdW  Elec       q    Type
REMARK                         _______ _______ _______ _____ _____    ______ ____
ROOT
ATOM      1  O   UNL     1     -14.753  -1.439  -6.578  0.00  0.00    -0.619 OA
ATOM      2  N   UNL     1     -15.355  -0.327  -6.387  0.00  0.00    -0.157 N 
ATOM      3  C   UNL     1     -14.874   0.562  -5.405  0.00  0.00    +0.292 A 
ATOM      4  C   UNL     1     -15.527   1.790  -5.196  0.00  0.00    +0.292 A 
ATOM      5  C   UNL     1     -15.053   2.649  -4.177  0.00  0.00    +0.086 A 
ATOM      6  C   UNL     1     -13.958   2.303  -3.385  0.00  0.00    +0.007 A 
ATOM      7  C   UNL     1     -13.307   1.095  -3.600  0.00  0.00    +0.007 A 
ATOM      8  N   UNL     1     -16.639   2.139  -5.990  0.00  0.00    -0.157 N 
ATOM      9  O   UNL     1     -17.236   3.252  -5.779  0.00  0.00    -0.619 OA
ATOM     10  C   UNL     1     -17.111   1.266  -6.982  0.00  0.00    +0.268 A 
ATOM     11  C   UNL     1     -13.758   0.234  -4.601  0.00  0.00    +0.086 A 
ATOM     12  C   UNL     1     -16.493   0.001  -7.136  0.00  0.00    +0.261 A 
ATOM     13  C   UNL     1     -16.977  -1.057  -8.084  0.00  0.00    +0.130 C 
ENDROOT
BRANCH  10  14
ATOM     14  C   UNL     1     -18.355   1.751  -7.696  0.00  0.00    +0.150 C 
BRANCH  14  15
ATOM     15  C   UNL     1     -18.221   2.456  -9.027  0.00  0.00    -0.037 A 
ATOM     16  C   UNL     1     -19.303   3.195  -9.535  0.00  0.00    +0.004 A 
ATOM     17  C   UNL     1     -19.196   3.873 -10.750  0.00  0.00    +0.000 A 
ATOM     18  C   UNL     1     -18.002   3.831 -11.466  0.00  0.00    +0.000 A 
ATOM     19  C   UNL     1     -16.913   3.121 -10.962  0.00  0.00    +0.000 A 
ATOM     20  C   UNL     1     -17.016   2.443  -9.744  0.00  0.00    +0.004 A 
ENDBRANCH  14  15
ENDBRANCH  10  14
TORSDOF 2
ENDMDL
MODEL 9
REMARK VINA RESULT:      -7.1      3.347      5.966
REMARK  Name = min_compound955.pdb
REMARK  3 active torsions:
REMARK  status: ('A' for Active; 'I' for Inactive)
REMARK    1  A    between atoms: _11  and  _19
REMARK    2  A    between atoms: _12  and  _20
REMARK    3  A    between atoms: _15  and  _20
REMARK                            x       y       z     vdW  Elec       q    Type
REMARK                         _______ _______ _______ _____ _____    ______ ____
ROOT
ATOM      1  O   UNL     1     -12.044   6.570 -17.960  0.00  0.00    -0.619 OA
ATOM      2  N   UNL     1     -12.465   5.491 -18.503  0.00  0.00    -0.157 N 
ATOM      3  C   UNL     1     -12.855   5.503 -19.858  0.00  0.00    +0.292 A 
ATOM      4  C   UNL     1     -13.311   4.317 -20.463  0.00  0.00    +0.292 A 
ATOM      5  C   UNL     1     -13.737   4.361 -21.811  0.00  0.00    +0.086 A 
ATOM      6  C   UNL     1     -13.709   5.547 -22.544  0.00  0.00    +0.007 A 
ATOM      7  C   UNL     1     -13.249   6.715 -21.949  0.00  0.00    +0.007 A 
ATOM      8  N   UNL     1     -13.346   3.118 -19.721  0.00  0.00    -0.157 N 
ATOM      9  O   UNL     1     -13.779   2.049 -20.278  0.00  0.00    -0.619 OA
ATOM     10  C   UNL     1     -12.942   3.097 -18.378  0.00  0.00    +0.268 A 
ATOM     11  C   UNL     1     -12.823   6.693 -20.621  0.00  0.00    +0.086 A 
ATOM     12  C   UNL     1     -12.554   4.309 -17.756  0.00  0.00    +0.261 A 
ATOM     13  C   UNL     1     -12.207   4.429 -16.301  0.00  0.00    +0.130 C 
ENDROOT
BRANCH  10  14
ATOM     14  C   UNL     1     -13.108   1.753 -17.701  0.00  0.00    +0.150 C 
BRANCH  14  15
ATOM     15  C   UNL     1     -11.882   0.954 -17.320  0.00  0.00    -0.037 A 
ATOM     16  C   UNL     1     -12.026  -0.237 -16.588  0.00  0.00    +0.004 A 
ATOM     17  C   UNL     1     -10.912  -1.002 -16.245  0.00  0.00    +0.000 A 
ATOM     18  C   UNL     1      -9.640  -0.594 -16.639  0.00  0.00    +0.000 A 
ATOM     19  C   UNL     1      -9.484   0.573 -17.386  0.00  0.00    +0.000 A 
ATOM     20  C   UNL     1     -10.600   1.341 -17.734  0.00  0.00    +0.004 A 
ENDBRANCH  14  15
ENDBRANCH  10  14
TORSDOF 2
ENDMDL
