MODEL 1
REMARK VINA RESULT:      -7.5      0.000      0.000
REMARK  Name = min_compound976.pdb
REMARK  3 active torsions:
REMARK  status: ('A' for Active; 'I' for Inactive)
REMARK    1  A    between atoms: _5  and  _18
REMARK    2  A    between atoms: _7  and  _19
REMARK    3  A    between atoms: _10  and  _15
REMARK                            x       y       z     vdW  Elec       q    Type
REMARK                         _______ _______ _______ _____ _____    ______ ____
ROOT
ATOM      1  N   UNL     1     -14.890   3.395 -16.573  0.00  0.00    -0.269 N 
ATOM      2  H   UNL     1     -15.392   3.927 -17.277  0.00  0.00    +0.156 HD
ATOM      3  C   UNL     1     -13.776   2.840 -17.134  0.00  0.00    +0.308 C 
ATOM      4  N   UNL     1     -13.115   1.885 -16.432  0.00  0.00    -0.266 N 
ATOM      5  H   UNL     1     -13.642   1.487 -15.672  0.00  0.00    +0.156 HD
ATOM      6  O   UNL     1     -13.481   3.209 -18.269  0.00  0.00    -0.252 OA
ENDROOT
BRANCH   1  12
ATOM      7 CL   UNL     1     -14.787   5.039 -11.673  0.00  0.00    -0.082 Cl
ATOM      8  C   UNL     1     -15.516   4.123 -12.946  0.00  0.00    +0.061 A 
ATOM      9  C   UNL     1     -16.673   3.362 -12.747  0.00  0.00    +0.059 A 
ATOM     10  C   UNL     1     -17.223   2.659 -13.818  0.00  0.00    +0.023 A 
ATOM     11  C   UNL     1     -16.604   2.698 -15.071  0.00  0.00    +0.025 A 
ATOM     12  C   UNL     1     -15.426   3.430 -15.275  0.00  0.00    +0.036 A 
ATOM     13 CL   UNL     1     -17.471   3.259 -11.221  0.00  0.00    -0.082 Cl
ATOM     14  C   UNL     1     -14.907   4.170 -14.210  0.00  0.00    +0.044 A 
ENDBRANCH   1  12
BRANCH   4  15
ATOM     15  C   UNL     1     -11.896   1.219 -16.722  0.00  0.00    +0.077 A 
ATOM     16  C   UNL     1     -10.670   1.791 -17.097  0.00  0.00    +0.138 A 
ATOM     17  C   UNL     1      -9.548   0.988 -17.333  0.00  0.00    +0.047 A 
ATOM     18  C   UNL     1      -9.620  -0.394 -17.193  0.00  0.00    +0.004 A 
ATOM     19  C   UNL     1     -10.821  -0.981 -16.817  0.00  0.00    +0.002 A 
ATOM     20  C   UNL     1     -11.946  -0.182 -16.589  0.00  0.00    +0.027 A 
BRANCH  16  21
ATOM     21  O   UNL     1     -10.431   3.122 -17.283  0.00  0.00    -0.505 OA
ATOM     22  H   UNL     1     -11.186   3.517 -17.766  0.00  0.00    +0.292 HD
ENDBRANCH  16  21
ENDBRANCH   4  15
TORSDOF 3
ENDMDL
MODEL 2
REMARK VINA RESULT:      -7.0      1.458      2.304
REMARK  Name = min_compound976.pdb
REMARK  3 active torsions:
REMARK  status: ('A' for Active; 'I' for Inactive)
REMARK    1  A    between atoms: _5  and  _18
REMARK    2  A    between atoms: _7  and  _19
REMARK    3  A    between atoms: _10  and  _15
REMARK                            x       y       z     vdW  Elec       q    Type
REMARK                         _______ _______ _______ _____ _____    ______ ____
ROOT
ATOM      1  N   UNL     1     -15.107   3.381 -17.031  0.00  0.00    -0.269 N 
ATOM      2  H   UNL     1     -15.687   3.655 -17.817  0.00  0.00    +0.156 HD
ATOM      3  C   UNL     1     -14.076   2.606 -17.477  0.00  0.00    +0.308 C 
ATOM      4  N   UNL     1     -13.341   1.929 -16.558  0.00  0.00    -0.266 N 
ATOM      5  H   UNL     1     -13.774   1.854 -15.652  0.00  0.00    +0.156 HD
ATOM      6  O   UNL     1     -13.918   2.534 -18.694  0.00  0.00    -0.252 OA
ENDROOT
BRANCH   1  12
ATOM      7 CL   UNL     1     -17.163   2.822 -12.321  0.00  0.00    -0.082 Cl
ATOM      8  C   UNL     1     -16.408   3.794 -13.536  0.00  0.00    +0.061 A 
ATOM      9  C   UNL     1     -16.138   5.153 -13.341  0.00  0.00    +0.059 A 
ATOM     10  C   UNL     1     -15.511   5.878 -14.353  0.00  0.00    +0.023 A 
ATOM     11  C   UNL     1     -15.182   5.255 -15.560  0.00  0.00    +0.025 A 
ATOM     12  C   UNL     1     -15.479   3.902 -15.780  0.00  0.00    +0.036 A 
ATOM     13 CL   UNL     1     -16.535   5.983 -11.881  0.00  0.00    -0.082 Cl
ATOM     14  C   UNL     1     -16.063   3.169 -14.745  0.00  0.00    +0.044 A 
ENDBRANCH   1  12
BRANCH   4  15
ATOM     15  C   UNL     1     -12.173   1.140 -16.725  0.00  0.00    +0.077 A 
ATOM     16  C   UNL     1     -12.044  -0.250 -16.576  0.00  0.00    +0.138 A 
ATOM     17  C   UNL     1     -10.814  -0.882 -16.796  0.00  0.00    +0.047 A 
ATOM     18  C   UNL     1      -9.694  -0.148 -17.174  0.00  0.00    +0.004 A 
ATOM     19  C   UNL     1      -9.801   1.227 -17.333  0.00  0.00    +0.002 A 
ATOM     20  C   UNL     1     -11.026   1.862 -17.106  0.00  0.00    +0.027 A 
BRANCH  16  21
ATOM     21  O   UNL     1     -13.037  -1.111 -16.208  0.00  0.00    -0.505 OA
ATOM     22  H   UNL     1     -13.804  -0.987 -16.805  0.00  0.00    +0.292 HD
ENDBRANCH  16  21
ENDBRANCH   4  15
TORSDOF 3
ENDMDL
MODEL 3
REMARK VINA RESULT:      -7.0      5.083      6.373
REMARK  Name = min_compound976.pdb
REMARK  3 active torsions:
REMARK  status: ('A' for Active; 'I' for Inactive)
REMARK    1  A    between atoms: _5  and  _18
REMARK    2  A    between atoms: _7  and  _19
REMARK    3  A    between atoms: _10  and  _15
REMARK                            x       y       z     vdW  Elec       q    Type
REMARK                         _______ _______ _______ _____ _____    ______ ____
ROOT
ATOM      1  N   UNL     1     -13.598   4.378 -18.548  0.00  0.00    -0.269 N 
ATOM      2  H   UNL     1     -14.572   4.593 -18.360  0.00  0.00    +0.156 HD
ATOM      3  C   UNL     1     -13.239   3.260 -17.851  0.00  0.00    +0.308 C 
ATOM      4  N   UNL     1     -11.918   2.960 -17.763  0.00  0.00    -0.266 N 
ATOM      5  H   UNL     1     -11.302   3.720 -18.000  0.00  0.00    +0.156 HD
ATOM      6  O   UNL     1     -14.141   2.630 -17.304  0.00  0.00    -0.252 OA
ENDROOT
BRANCH   1  12
ATOM      7 CL   UNL     1     -12.374   5.679 -23.399  0.00  0.00    -0.082 Cl
ATOM      8  C   UNL     1     -12.297   5.956 -21.693  0.00  0.00    +0.061 A 
ATOM      9  C   UNL     1     -11.576   7.022 -21.143  0.00  0.00    +0.059 A 
ATOM     10  C   UNL     1     -11.568   7.201 -19.761  0.00  0.00    +0.023 A 
ATOM     11  C   UNL     1     -12.252   6.306 -18.935  0.00  0.00    +0.025 A 
ATOM     12  C   UNL     1     -12.950   5.215 -19.472  0.00  0.00    +0.036 A 
ATOM     13 CL   UNL     1     -10.697   8.150 -22.109  0.00  0.00    -0.082 Cl
ATOM     14  C   UNL     1     -12.995   5.067 -20.860  0.00  0.00    +0.044 A 
ENDBRANCH   1  12
BRANCH   4  15
ATOM     15  C   UNL     1     -11.275   1.830 -17.195  0.00  0.00    +0.077 A 
ATOM     16  C   UNL     1     -10.593   1.751 -15.971  0.00  0.00    +0.138 A 
ATOM     17  C   UNL     1     -10.024   0.545 -15.544  0.00  0.00    +0.047 A 
ATOM     18  C   UNL     1     -10.130  -0.605 -16.319  0.00  0.00    +0.004 A 
ATOM     19  C   UNL     1     -10.806  -0.552 -17.531  0.00  0.00    +0.002 A 
ATOM     20  C   UNL     1     -11.368   0.653 -17.964  0.00  0.00    +0.027 A 
BRANCH  16  21
ATOM     21  O   UNL     1     -10.395   2.781 -15.098  0.00  0.00    -0.505 OA
ATOM     22  H   UNL     1     -11.265   3.115 -14.796  0.00  0.00    +0.292 HD
ENDBRANCH  16  21
ENDBRANCH   4  15
TORSDOF 3
ENDMDL
MODEL 4
REMARK VINA RESULT:      -6.9      6.386      8.540
REMARK  Name = min_compound976.pdb
REMARK  3 active torsions:
REMARK  status: ('A' for Active; 'I' for Inactive)
REMARK    1  A    between atoms: _5  and  _18
REMARK    2  A    between atoms: _7  and  _19
REMARK    3  A    between atoms: _10  and  _15
REMARK                            x       y       z     vdW  Elec       q    Type
REMARK                         _______ _______ _______ _____ _____    ______ ____
ROOT
ATOM      1  N   UNL     1     -16.874   4.005  -9.338  0.00  0.00    -0.269 N 
ATOM      2  H   UNL     1     -17.454   4.780  -9.033  0.00  0.00    +0.156 HD
ATOM      3  C   UNL     1     -16.751   3.104  -8.320  0.00  0.00    +0.308 C 
ATOM      4  N   UNL     1     -15.811   2.132  -8.437  0.00  0.00    -0.266 N 
ATOM      5  H   UNL     1     -15.116   2.308  -9.144  0.00  0.00    +0.156 HD
ATOM      6  O   UNL     1     -17.471   3.271  -7.337  0.00  0.00    -0.252 OA
ENDROOT
BRANCH   1  12
ATOM      7 CL   UNL     1     -17.309   2.606 -14.296  0.00  0.00    -0.082 Cl
ATOM      8  C   UNL     1     -16.517   3.490 -13.038  0.00  0.00    +0.061 A 
ATOM      9  C   UNL     1     -15.394   4.288 -13.281  0.00  0.00    +0.059 A 
ATOM     10  C   UNL     1     -14.811   4.989 -12.227  0.00  0.00    +0.023 A 
ATOM     11  C   UNL     1     -15.333   4.872 -10.935  0.00  0.00    +0.025 A 
ATOM     12  C   UNL     1     -16.438   4.049 -10.673  0.00  0.00    +0.036 A 
ATOM     13 CL   UNL     1     -14.693   4.458 -14.848  0.00  0.00    -0.082 Cl
ATOM     14  C   UNL     1     -17.046   3.386 -11.741  0.00  0.00    +0.044 A 
ENDBRANCH   1  12
BRANCH   4  15
ATOM     15  C   UNL     1     -15.533   1.025  -7.593  0.00  0.00    +0.077 A 
ATOM     16  C   UNL     1     -16.321  -0.118  -7.385  0.00  0.00    +0.138 A 
ATOM     17  C   UNL     1     -15.891  -1.136  -6.526  0.00  0.00    +0.047 A 
ATOM     18  C   UNL     1     -14.670  -1.042  -5.865  0.00  0.00    +0.004 A 
ATOM     19  C   UNL     1     -13.873   0.077  -6.061  0.00  0.00    +0.002 A 
ATOM     20  C   UNL     1     -14.303   1.100  -6.912  0.00  0.00    +0.027 A 
BRANCH  16  21
ATOM     21  O   UNL     1     -17.539  -0.364  -7.948  0.00  0.00    -0.505 OA
ATOM     22  H   UNL     1     -17.939   0.486  -8.227  0.00  0.00    +0.292 HD
ENDBRANCH  16  21
ENDBRANCH   4  15
TORSDOF 3
ENDMDL
MODEL 5
REMARK VINA RESULT:      -6.9      3.478      6.987
REMARK  Name = min_compound976.pdb
REMARK  3 active torsions:
REMARK  status: ('A' for Active; 'I' for Inactive)
REMARK    1  A    between atoms: _5  and  _18
REMARK    2  A    between atoms: _7  and  _19
REMARK    3  A    between atoms: _10  and  _15
REMARK                            x       y       z     vdW  Elec       q    Type
REMARK                         _______ _______ _______ _____ _____    ______ ____
ROOT
ATOM      1  N   UNL     1     -13.878   4.572 -16.198  0.00  0.00    -0.269 N 
ATOM      2  H   UNL     1     -13.989   5.285 -16.912  0.00  0.00    +0.156 HD
ATOM      3  C   UNL     1     -14.797   4.774 -15.210  0.00  0.00    +0.308 C 
ATOM      4  N   UNL     1     -14.646   4.090 -14.047  0.00  0.00    -0.266 N 
ATOM      5  H   UNL     1     -13.732   3.687 -13.917  0.00  0.00    +0.156 HD
ATOM      6  O   UNL     1     -15.674   5.608 -15.425  0.00  0.00    -0.252 OA
ENDROOT
BRANCH   1  12
ATOM      7 CL   UNL     1     -12.395  -0.366 -16.573  0.00  0.00    -0.082 Cl
ATOM      8  C   UNL     1     -12.055   1.327 -16.672  0.00  0.00    +0.061 A 
ATOM      9  C   UNL     1     -10.785   1.814 -16.998  0.00  0.00    +0.059 A 
ATOM     10  C   UNL     1     -10.579   3.190 -17.078  0.00  0.00    +0.023 A 
ATOM     11  C   UNL     1     -11.629   4.071 -16.810  0.00  0.00    +0.025 A 
ATOM     12  C   UNL     1     -12.899   3.596 -16.450  0.00  0.00    +0.036 A 
ATOM     13 CL   UNL     1      -9.444   0.777 -17.322  0.00  0.00    -0.082 Cl
ATOM     14  C   UNL     1     -13.112   2.217 -16.417  0.00  0.00    +0.044 A 
ENDBRANCH   1  12
BRANCH   4  15
ATOM     15  C   UNL     1     -15.488   4.031 -12.907  0.00  0.00    +0.077 A 
ATOM     16  C   UNL     1     -16.706   3.344 -12.770  0.00  0.00    +0.138 A 
ATOM     17  C   UNL     1     -17.412   3.373 -11.562  0.00  0.00    +0.047 A 
ATOM     18  C   UNL     1     -16.920   4.075 -10.466  0.00  0.00    +0.004 A 
ATOM     19  C   UNL     1     -15.715   4.756 -10.577  0.00  0.00    +0.002 A 
ATOM     20  C   UNL     1     -15.011   4.736 -11.786  0.00  0.00    +0.027 A 
BRANCH  16  21
ATOM     21  O   UNL     1     -17.327   2.616 -13.743  0.00  0.00    -0.505 OA
ATOM     22  H   UNL     1     -17.938   1.977 -13.321  0.00  0.00    +0.292 HD
ENDBRANCH  16  21
ENDBRANCH   4  15
TORSDOF 3
ENDMDL
MODEL 6
REMARK VINA RESULT:      -6.8      4.942      6.037
REMARK  Name = min_compound976.pdb
REMARK  3 active torsions:
REMARK  status: ('A' for Active; 'I' for Inactive)
REMARK    1  A    between atoms: _5  and  _18
REMARK    2  A    between atoms: _7  and  _19
REMARK    3  A    between atoms: _10  and  _15
REMARK                            x       y       z     vdW  Elec       q    Type
REMARK                         _______ _______ _______ _____ _____    ______ ____
ROOT
ATOM      1  N   UNL     1     -12.686   4.873 -17.516  0.00  0.00    -0.269 N 
ATOM      2  H   UNL     1     -13.023   5.537 -16.826  0.00  0.00    +0.156 HD
ATOM      3  C   UNL     1     -12.305   3.722 -16.889  0.00  0.00    +0.308 C 
ATOM      4  N   UNL     1     -11.588   2.814 -17.598  0.00  0.00    -0.266 N 
ATOM      5  H   UNL     1     -11.182   3.176 -18.446  0.00  0.00    +0.156 HD
ATOM      6  O   UNL     1     -12.595   3.613 -15.699  0.00  0.00    -0.252 OA
ENDROOT
BRANCH   1  12
ATOM      7 CL   UNL     1     -10.994   7.734 -21.475  0.00  0.00    -0.082 Cl
ATOM      8  C   UNL     1     -12.076   6.559 -20.812  0.00  0.00    +0.061 A 
ATOM      9  C   UNL     1     -13.089   5.966 -21.573  0.00  0.00    +0.059 A 
ATOM     10  C   UNL     1     -13.917   5.012 -20.985  0.00  0.00    +0.023 A 
ATOM     11  C   UNL     1     -13.751   4.674 -19.639  0.00  0.00    +0.025 A 
ATOM     12  C   UNL     1     -12.761   5.286 -18.857  0.00  0.00    +0.036 A 
ATOM     13 CL   UNL     1     -13.356   6.354 -23.233  0.00  0.00    -0.082 Cl
ATOM     14  C   UNL     1     -11.903   6.206 -19.463  0.00  0.00    +0.044 A 
ENDBRANCH   1  12
BRANCH   4  15
ATOM     15  C   UNL     1     -11.151   1.514 -17.238  0.00  0.00    +0.077 A 
ATOM     16  C   UNL     1     -11.908   0.476 -16.673  0.00  0.00    +0.138 A 
ATOM     17  C   UNL     1     -11.324  -0.765 -16.391  0.00  0.00    +0.047 A 
ATOM     18  C   UNL     1      -9.983  -1.001 -16.671  0.00  0.00    +0.004 A 
ATOM     19  C   UNL     1      -9.215   0.010 -17.236  0.00  0.00    +0.002 A 
ATOM     20  C   UNL     1      -9.794   1.253 -17.511  0.00  0.00    +0.027 A 
BRANCH  16  21
ATOM     21  O   UNL     1     -13.228   0.542 -16.333  0.00  0.00    -0.505 OA
ATOM     22  H   UNL     1     -13.457  -0.240 -15.790  0.00  0.00    +0.292 HD
ENDBRANCH  16  21
ENDBRANCH   4  15
TORSDOF 3
ENDMDL
MODEL 7
REMARK VINA RESULT:      -6.7      1.574      2.209
REMARK  Name = min_compound976.pdb
REMARK  3 active torsions:
REMARK  status: ('A' for Active; 'I' for Inactive)
REMARK    1  A    between atoms: _5  and  _18
REMARK    2  A    between atoms: _7  and  _19
REMARK    3  A    between atoms: _10  and  _15
REMARK                            x       y       z     vdW  Elec       q    Type
REMARK                         _______ _______ _______ _____ _____    ______ ____
ROOT
ATOM      1  N   UNL     1     -14.029   4.592 -15.969  0.00  0.00    -0.269 N 
ATOM      2  H   UNL     1     -14.024   5.534 -16.345  0.00  0.00    +0.156 HD
ATOM      3  C   UNL     1     -12.933   3.917 -16.425  0.00  0.00    +0.308 C 
ATOM      4  N   UNL     1     -12.892   2.572 -16.249  0.00  0.00    -0.266 N 
ATOM      5  H   UNL     1     -13.781   2.154 -16.027  0.00  0.00    +0.156 HD
ATOM      6  O   UNL     1     -12.079   4.575 -17.016  0.00  0.00    -0.252 OA
ENDROOT
BRANCH   1  12
ATOM      7 CL   UNL     1     -18.862   3.008 -15.045  0.00  0.00    -0.082 Cl
ATOM      8  C   UNL     1     -17.317   3.553 -14.490  0.00  0.00    +0.061 A 
ATOM      9  C   UNL     1     -17.032   3.728 -13.132  0.00  0.00    +0.059 A 
ATOM     10  C   UNL     1     -15.761   4.153 -12.748  0.00  0.00    +0.023 A 
ATOM     11  C   UNL     1     -14.792   4.426 -13.717  0.00  0.00    +0.025 A 
ATOM     12  C   UNL     1     -15.076   4.286 -15.083  0.00  0.00    +0.036 A 
ATOM     13 CL   UNL     1     -18.191   3.425 -11.890  0.00  0.00    -0.082 Cl
ATOM     14  C   UNL     1     -16.335   3.815 -15.460  0.00  0.00    +0.044 A 
ENDBRANCH   1  12
BRANCH   4  15
ATOM     15  C   UNL     1     -11.854   1.646 -16.531  0.00  0.00    +0.077 A 
ATOM     16  C   UNL     1     -11.598   0.981 -17.740  0.00  0.00    +0.138 A 
ATOM     17  C   UNL     1     -10.513   0.104 -17.859  0.00  0.00    +0.047 A 
ATOM     18  C   UNL     1      -9.659  -0.122 -16.785  0.00  0.00    +0.004 A 
ATOM     19  C   UNL     1      -9.890   0.531 -15.581  0.00  0.00    +0.002 A 
ATOM     20  C   UNL     1     -10.978   1.400 -15.456  0.00  0.00    +0.027 A 
BRANCH  16  21
ATOM     21  O   UNL     1     -12.337   1.085 -18.883  0.00  0.00    -0.505 OA
ATOM     22  H   UNL     1     -13.235   1.402 -18.654  0.00  0.00    +0.292 HD
ENDBRANCH  16  21
ENDBRANCH   4  15
TORSDOF 3
ENDMDL
MODEL 8
REMARK VINA RESULT:      -6.6      1.505      1.963
REMARK  Name = min_compound976.pdb
REMARK  3 active torsions:
REMARK  status: ('A' for Active; 'I' for Inactive)
REMARK    1  A    between atoms: _5  and  _18
REMARK    2  A    between atoms: _7  and  _19
REMARK    3  A    between atoms: _10  and  _15
REMARK                            x       y       z     vdW  Elec       q    Type
REMARK                         _______ _______ _______ _____ _____    ______ ____
ROOT
ATOM      1  N   UNL     1     -14.608   4.567 -16.540  0.00  0.00    -0.269 N 
ATOM      2  H   UNL     1     -14.869   5.142 -17.335  0.00  0.00    +0.156 HD
ATOM      3  C   UNL     1     -13.581   3.741 -16.897  0.00  0.00    +0.308 C 
ATOM      4  N   UNL     1     -13.263   2.720 -16.062  0.00  0.00    -0.266 N 
ATOM      5  H   UNL     1     -13.970   2.505 -15.379  0.00  0.00    +0.156 HD
ATOM      6  O   UNL     1     -13.049   3.951 -17.985  0.00  0.00    -0.252 OA
ENDROOT
BRANCH   1  12
ATOM      7 CL   UNL     1     -17.201   2.922 -12.382  0.00  0.00    -0.082 Cl
ATOM      8  C   UNL     1     -16.531   4.197 -13.340  0.00  0.00    +0.061 A 
ATOM      9  C   UNL     1     -16.654   5.543 -12.980  0.00  0.00    +0.059 A 
ATOM     10  C   UNL     1     -16.077   6.523 -13.785  0.00  0.00    +0.023 A 
ATOM     11  C   UNL     1     -15.404   6.159 -14.955  0.00  0.00    +0.025 A 
ATOM     12  C   UNL     1     -15.303   4.816 -15.344  0.00  0.00    +0.036 A 
ATOM     13 CL   UNL     1     -17.488   6.055 -11.558  0.00  0.00    -0.082 Cl
ATOM     14  C   UNL     1     -15.842   3.835 -14.509  0.00  0.00    +0.044 A 
ENDBRANCH   1  12
BRANCH   4  15
ATOM     15  C   UNL     1     -12.199   1.783 -16.130  0.00  0.00    +0.077 A 
ATOM     16  C   UNL     1     -10.857   1.976 -15.767  0.00  0.00    +0.138 A 
ATOM     17  C   UNL     1      -9.928   0.935 -15.880  0.00  0.00    +0.047 A 
ATOM     18  C   UNL     1     -10.315  -0.317 -16.347  0.00  0.00    +0.004 A 
ATOM     19  C   UNL     1     -11.639  -0.532 -16.707  0.00  0.00    +0.002 A 
ATOM     20  C   UNL     1     -12.568   0.509 -16.603  0.00  0.00    +0.027 A 
BRANCH  16  21
ATOM     21  O   UNL     1     -10.314   3.137 -15.298  0.00  0.00    -0.505 OA
ATOM     22  H   UNL     1     -10.656   3.886 -15.828  0.00  0.00    +0.292 HD
ENDBRANCH  16  21
ENDBRANCH   4  15
TORSDOF 3
ENDMDL
MODEL 9
REMARK VINA RESULT:      -6.6     13.405     15.006
REMARK  Name = min_compound976.pdb
REMARK  3 active torsions:
REMARK  status: ('A' for Active; 'I' for Inactive)
REMARK    1  A    between atoms: _5  and  _18
REMARK    2  A    between atoms: _7  and  _19
REMARK    3  A    between atoms: _10  and  _15
REMARK                            x       y       z     vdW  Elec       q    Type
REMARK                         _______ _______ _______ _____ _____    ______ ____
ROOT
ATOM      1  N   UNL     1     -16.535  -3.786  -2.085  0.00  0.00    -0.269 N 
ATOM      2  H   UNL     1     -17.527  -3.935  -1.931  0.00  0.00    +0.156 HD
ATOM      3  C   UNL     1     -16.352  -2.611  -2.755  0.00  0.00    +0.308 C 
ATOM      4  N   UNL     1     -15.127  -2.360  -3.282  0.00  0.00    -0.266 N 
ATOM      5  H   UNL     1     -14.532  -3.168  -3.354  0.00  0.00    +0.156 HD
ATOM      6  O   UNL     1     -17.334  -1.882  -2.881  0.00  0.00    -0.252 OA
ENDROOT
BRANCH   1  12
ATOM      7 CL   UNL     1     -13.425  -7.884  -2.587  0.00  0.00    -0.082 Cl
ATOM      8  C   UNL     1     -14.180  -6.669  -1.616  0.00  0.00    +0.061 A 
ATOM      9  C   UNL     1     -13.983  -6.592  -0.233  0.00  0.00    +0.059 A 
ATOM     10  C   UNL     1     -14.606  -5.578   0.492  0.00  0.00    +0.023 A 
ATOM     11  C   UNL     1     -15.442  -4.665  -0.158  0.00  0.00    +0.025 A 
ATOM     12  C   UNL     1     -15.675  -4.753  -1.538  0.00  0.00    +0.036 A 
ATOM     13 CL   UNL     1     -12.978  -7.698   0.629  0.00  0.00    -0.082 Cl
ATOM     14  C   UNL     1     -15.010  -5.742  -2.267  0.00  0.00    +0.044 A 
ENDBRANCH   1  12
BRANCH   4  15
ATOM     15  C   UNL     1     -14.634  -1.199  -3.932  0.00  0.00    +0.077 A 
ATOM     16  C   UNL     1     -14.436  -1.001  -5.308  0.00  0.00    +0.138 A 
ATOM     17  C   UNL     1     -13.954   0.221  -5.793  0.00  0.00    +0.047 A 
ATOM     18  C   UNL     1     -13.668   1.269  -4.924  0.00  0.00    +0.004 A 
ATOM     19  C   UNL     1     -13.863   1.097  -3.560  0.00  0.00    +0.002 A 
ATOM     20  C   UNL     1     -14.336  -0.125  -3.072  0.00  0.00    +0.027 A 
BRANCH  16  21
ATOM     21  O   UNL     1     -14.661  -1.922  -6.289  0.00  0.00    -0.505 OA
ATOM     22  H   UNL     1     -15.600  -2.198  -6.258  0.00  0.00    +0.292 HD
ENDBRANCH  16  21
ENDBRANCH   4  15
TORSDOF 3
ENDMDL
