MODEL 1
REMARK VINA RESULT:      -6.7      0.000      0.000
REMARK  Name = min_compound919.pdb
REMARK  3 active torsions:
REMARK  status: ('A' for Active; 'I' for Inactive)
REMARK    1  A    between atoms: _1  and  _15
REMARK    2  A    between atoms: _2  and  _16
REMARK    3  A    between atoms: _6  and  _19
REMARK                            x       y       z     vdW  Elec       q    Type
REMARK                         _______ _______ _______ _____ _____    ______ ____
ROOT
ATOM      1  C   UNL     1     -14.980   7.719 -16.573  0.00  0.00    +0.027 A 
ATOM      2  C   UNL     1     -15.566   9.101 -16.595  0.00  0.00    +0.051 C 
ATOM      3  C   UNL     1     -15.234   6.671 -15.664  0.00  0.00    +0.278 A 
ATOM      4  C   UNL     1     -14.636   5.331 -15.769  0.00  0.00    +0.107 A 
ATOM      5  C   UNL     1     -13.739   4.959 -16.794  0.00  0.00    +0.041 A 
ATOM      6  C   UNL     1     -13.475   5.992 -17.699  0.00  0.00    +0.024 A 
ATOM      7  C   UNL     1     -14.071   7.308 -17.592  0.00  0.00    +0.012 A 
ENDROOT
BRANCH   5   8
ATOM      8  N   UNL     1     -13.166   3.597 -16.850  0.00  0.00    -0.269 N 
ATOM      9  H   UNL     1     -13.790   2.847 -16.593  0.00  0.00    +0.156 HD
ATOM     10  C   UNL     1     -11.861   3.229 -17.226  0.00  0.00    +0.306 C 
ATOM     11  N   UNL     1     -11.479   1.829 -17.159  0.00  0.00    -0.285 N 
ATOM     12  C   UNL     1     -12.318   0.709 -16.592  0.00  0.00    +0.109 C 
ATOM     13  C   UNL     1     -11.776  -0.689 -16.583  0.00  0.00    +0.019 C 
ATOM     14  C   UNL     1     -10.323  -0.293 -16.015  0.00  0.00    +0.003 C 
ATOM     15  C   UNL     1      -9.436   0.213 -17.260  0.00  0.00    +0.019 C 
ATOM     16  C   UNL     1      -9.978   1.612 -17.269  0.00  0.00    +0.109 C 
ATOM     17  O   UNL     1     -11.027   4.064 -17.586  0.00  0.00    -0.252 OA
ENDBRANCH   5   8
BRANCH   3  18
ATOM     18  N   UNL     1     -16.147   6.896 -14.537  0.00  0.00    +0.080 N 
ATOM     19  O   UNL     1     -17.299   6.451 -14.641  0.00  0.00    +0.041 OA
ATOM     20  O   UNL     1     -15.709   7.498 -13.547  0.00  0.00    -0.576 OA
ENDBRANCH   3  18
TORSDOF 2
ENDMDL
MODEL 2
REMARK VINA RESULT:      -6.6      1.950      2.281
REMARK  Name = min_compound919.pdb
REMARK  3 active torsions:
REMARK  status: ('A' for Active; 'I' for Inactive)
REMARK    1  A    between atoms: _1  and  _15
REMARK    2  A    between atoms: _2  and  _16
REMARK    3  A    between atoms: _6  and  _19
REMARK                            x       y       z     vdW  Elec       q    Type
REMARK                         _______ _______ _______ _____ _____    ______ ____
ROOT
ATOM      1  C   UNL     1     -16.123   6.316 -13.954  0.00  0.00    +0.027 A 
ATOM      2  C   UNL     1     -16.986   7.452 -13.488  0.00  0.00    +0.051 C 
ATOM      3  C   UNL     1     -15.708   5.175 -13.236  0.00  0.00    +0.278 A 
ATOM      4  C   UNL     1     -14.897   4.092 -13.812  0.00  0.00    +0.107 A 
ATOM      5  C   UNL     1     -14.448   4.087 -15.151  0.00  0.00    +0.041 A 
ATOM      6  C   UNL     1     -14.848   5.216 -15.872  0.00  0.00    +0.024 A 
ATOM      7  C   UNL     1     -15.650   6.278 -15.298  0.00  0.00    +0.012 A 
ENDROOT
BRANCH   5   8
ATOM      8  N   UNL     1     -13.633   2.971 -15.678  0.00  0.00    -0.269 N 
ATOM      9  H   UNL     1     -14.044   2.054 -15.604  0.00  0.00    +0.156 HD
ATOM     10  C   UNL     1     -12.361   3.044 -16.277  0.00  0.00    +0.306 C 
ATOM     11  N   UNL     1     -11.704   1.814 -16.682  0.00  0.00    -0.285 N 
ATOM     12  C   UNL     1     -12.198   0.415 -16.406  0.00  0.00    +0.109 C 
ATOM     13  C   UNL     1     -11.396  -0.760 -16.880  0.00  0.00    +0.019 C 
ATOM     14  C   UNL     1      -9.976  -0.202 -16.365  0.00  0.00    +0.003 C 
ATOM     15  C   UNL     1      -9.426   0.825 -17.476  0.00  0.00    +0.019 C 
ATOM     16  C   UNL     1     -10.228   2.000 -17.001  0.00  0.00    +0.109 C 
ATOM     17  O   UNL     1     -11.781   4.121 -16.444  0.00  0.00    -0.252 OA
ENDBRANCH   5   8
BRANCH   3  18
ATOM     18  N   UNL     1     -16.093   5.027 -11.827  0.00  0.00    +0.080 N 
ATOM     19  O   UNL     1     -17.265   4.702 -11.589  0.00  0.00    +0.041 OA
ATOM     20  O   UNL     1     -15.225   5.219 -10.964  0.00  0.00    -0.576 OA
ENDBRANCH   3  18
TORSDOF 2
ENDMDL
MODEL 3
REMARK VINA RESULT:      -6.5      1.706      2.306
REMARK  Name = min_compound919.pdb
REMARK  3 active torsions:
REMARK  status: ('A' for Active; 'I' for Inactive)
REMARK    1  A    between atoms: _1  and  _15
REMARK    2  A    between atoms: _2  and  _16
REMARK    3  A    between atoms: _6  and  _19
REMARK                            x       y       z     vdW  Elec       q    Type
REMARK                         _______ _______ _______ _____ _____    ______ ____
ROOT
ATOM      1  C   UNL     1     -15.927   6.664 -14.521  0.00  0.00    +0.027 A 
ATOM      2  C   UNL     1     -16.684   7.846 -13.991  0.00  0.00    +0.051 C 
ATOM      3  C   UNL     1     -15.410   6.460 -15.818  0.00  0.00    +0.278 A 
ATOM      4  C   UNL     1     -14.635   5.275 -16.215  0.00  0.00    +0.107 A 
ATOM      5  C   UNL     1     -14.331   4.214 -15.334  0.00  0.00    +0.041 A 
ATOM      6  C   UNL     1     -14.844   4.402 -14.047  0.00  0.00    +0.024 A 
ATOM      7  C   UNL     1     -15.604   5.574 -13.661  0.00  0.00    +0.012 A 
ENDROOT
BRANCH   5   8
ATOM      8  N   UNL     1     -13.548   3.045 -15.788  0.00  0.00    -0.269 N 
ATOM      9  H   UNL     1     -13.989   2.146 -15.664  0.00  0.00    +0.156 HD
ATOM     10  C   UNL     1     -12.272   3.043 -16.380  0.00  0.00    +0.306 C 
ATOM     11  N   UNL     1     -11.651   1.770 -16.706  0.00  0.00    -0.285 N 
ATOM     12  C   UNL     1     -12.191   0.406 -16.352  0.00  0.00    +0.109 C 
ATOM     13  C   UNL     1     -11.423  -0.819 -16.750  0.00  0.00    +0.019 C 
ATOM     14  C   UNL     1      -9.990  -0.276 -16.257  0.00  0.00    +0.003 C 
ATOM     15  C   UNL     1      -9.400   0.666 -17.421  0.00  0.00    +0.019 C 
ATOM     16  C   UNL     1     -10.168   1.892 -17.023  0.00  0.00    +0.109 C 
ATOM     17  O   UNL     1     -11.656   4.089 -16.604  0.00  0.00    -0.252 OA
ENDBRANCH   5   8
BRANCH   3  18
ATOM     18  N   UNL     1     -15.638   7.473 -16.855  0.00  0.00    +0.080 N 
ATOM     19  O   UNL     1     -14.761   8.334 -17.011  0.00  0.00    +0.041 OA
ATOM     20  O   UNL     1     -16.681   7.398 -17.520  0.00  0.00    -0.576 OA
ENDBRANCH   3  18
TORSDOF 2
ENDMDL
MODEL 4
REMARK VINA RESULT:      -6.4     12.931     13.952
REMARK  Name = min_compound919.pdb
REMARK  3 active torsions:
REMARK  status: ('A' for Active; 'I' for Inactive)
REMARK    1  A    between atoms: _1  and  _15
REMARK    2  A    between atoms: _2  and  _16
REMARK    3  A    between atoms: _6  and  _19
REMARK                            x       y       z     vdW  Elec       q    Type
REMARK                         _______ _______ _______ _____ _____    ______ ____
ROOT
ATOM      1  C   UNL     1     -15.669   1.179  -7.369  0.00  0.00    +0.027 A 
ATOM      2  C   UNL     1     -15.897   2.209  -8.437  0.00  0.00    +0.051 C 
ATOM      3  C   UNL     1     -16.623   0.402  -6.679  0.00  0.00    +0.278 A 
ATOM      4  C   UNL     1     -16.280  -0.621  -5.679  0.00  0.00    +0.107 A 
ATOM      5  C   UNL     1     -14.953  -0.928  -5.307  0.00  0.00    +0.041 A 
ATOM      6  C   UNL     1     -13.998  -0.161  -5.980  0.00  0.00    +0.024 A 
ATOM      7  C   UNL     1     -14.343   0.843  -6.967  0.00  0.00    +0.012 A 
ENDROOT
BRANCH   5   8
ATOM      8  N   UNL     1     -14.666  -1.967  -4.293  0.00  0.00    -0.269 N 
ATOM      9  H   UNL     1     -14.164  -2.776  -4.625  0.00  0.00    +0.156 HD
ATOM     10  C   UNL     1     -15.003  -1.951  -2.927  0.00  0.00    +0.306 C 
ATOM     11  N   UNL     1     -14.674  -3.105  -2.109  0.00  0.00    -0.285 N 
ATOM     12  C   UNL     1     -14.105  -4.410  -2.610  0.00  0.00    +0.109 C 
ATOM     13  C   UNL     1     -13.828  -5.518  -1.636  0.00  0.00    +0.019 C 
ATOM     14  C   UNL     1     -15.234  -5.401  -0.860  0.00  0.00    +0.003 C 
ATOM     15  C   UNL     1     -15.098  -4.209   0.214  0.00  0.00    +0.019 C 
ATOM     16  C   UNL     1     -15.375  -3.101  -0.759  0.00  0.00    +0.109 C 
ATOM     17  O   UNL     1     -15.593  -0.996  -2.414  0.00  0.00    -0.252 OA
ENDBRANCH   5   8
BRANCH   3  18
ATOM     18  N   UNL     1     -18.051   0.601  -6.952  0.00  0.00    +0.080 N 
ATOM     19  O   UNL     1     -18.573  -0.130  -7.805  0.00  0.00    +0.041 OA
ATOM     20  O   UNL     1     -18.651   1.470  -6.304  0.00  0.00    -0.576 OA
ENDBRANCH   3  18
TORSDOF 2
ENDMDL
MODEL 5
REMARK VINA RESULT:      -6.4      7.184      8.347
REMARK  Name = min_compound919.pdb
REMARK  3 active torsions:
REMARK  status: ('A' for Active; 'I' for Inactive)
REMARK    1  A    between atoms: _1  and  _15
REMARK    2  A    between atoms: _2  and  _16
REMARK    3  A    between atoms: _6  and  _19
REMARK                            x       y       z     vdW  Elec       q    Type
REMARK                         _______ _______ _______ _____ _____    ______ ____
ROOT
ATOM      1  C   UNL     1     -16.540   6.286 -12.336  0.00  0.00    +0.027 A 
ATOM      2  C   UNL     1     -16.806   7.240 -13.463  0.00  0.00    +0.051 C 
ATOM      3  C   UNL     1     -17.165   6.222 -11.073  0.00  0.00    +0.278 A 
ATOM      4  C   UNL     1     -16.857   5.205 -10.056  0.00  0.00    +0.107 A 
ATOM      5  C   UNL     1     -15.897   4.186 -10.242  0.00  0.00    +0.041 A 
ATOM      6  C   UNL     1     -15.267   4.243 -11.489  0.00  0.00    +0.024 A 
ATOM      7  C   UNL     1     -15.578   5.245 -12.488  0.00  0.00    +0.012 A 
ENDROOT
BRANCH   5   8
ATOM      8  N   UNL     1     -15.626   3.190  -9.183  0.00  0.00    -0.269 N 
ATOM      9  H   UNL     1     -14.674   3.147  -8.854  0.00  0.00    +0.156 HD
ATOM     10  C   UNL     1     -16.541   2.307  -8.580  0.00  0.00    +0.306 C 
ATOM     11  N   UNL     1     -16.056   1.362  -7.589  0.00  0.00    -0.285 N 
ATOM     12  C   UNL     1     -14.611   1.133  -7.219  0.00  0.00    +0.109 C 
ATOM     13  C   UNL     1     -14.268   0.107  -6.180  0.00  0.00    +0.019 C 
ATOM     14  C   UNL     1     -15.226  -1.044  -6.770  0.00  0.00    +0.003 C 
ATOM     15  C   UNL     1     -16.716  -0.762  -6.228  0.00  0.00    +0.019 C 
ATOM     16  C   UNL     1     -17.059   0.265  -7.267  0.00  0.00    +0.109 C 
ATOM     17  O   UNL     1     -17.736   2.297  -8.888  0.00  0.00    -0.252 OA
ENDBRANCH   5   8
BRANCH   3  18
ATOM     18  N   UNL     1     -18.189   7.212 -10.721  0.00  0.00    +0.080 N 
ATOM     19  O   UNL     1     -19.272   7.148 -11.321  0.00  0.00    +0.041 OA
ATOM     20  O   UNL     1     -17.919   8.038  -9.838  0.00  0.00    -0.576 OA
ENDBRANCH   3  18
TORSDOF 2
ENDMDL
MODEL 6
REMARK VINA RESULT:      -6.3      1.762      2.443
REMARK  Name = min_compound919.pdb
REMARK  3 active torsions:
REMARK  status: ('A' for Active; 'I' for Inactive)
REMARK    1  A    between atoms: _1  and  _15
REMARK    2  A    between atoms: _2  and  _16
REMARK    3  A    between atoms: _6  and  _19
REMARK                            x       y       z     vdW  Elec       q    Type
REMARK                         _______ _______ _______ _____ _____    ______ ____
ROOT
ATOM      1  C   UNL     1     -16.375   9.569 -17.050  0.00  0.00    +0.027 A 
ATOM      2  C   UNL     1     -17.130  10.861 -17.173  0.00  0.00    +0.051 C 
ATOM      3  C   UNL     1     -16.036   8.857 -15.880  0.00  0.00    +0.278 A 
ATOM      4  C   UNL     1     -15.332   7.566 -15.881  0.00  0.00    +0.107 A 
ATOM      5  C   UNL     1     -14.921   6.906 -17.060  0.00  0.00    +0.041 A 
ATOM      6  C   UNL     1     -15.247   7.605 -18.226  0.00  0.00    +0.024 A 
ATOM      7  C   UNL     1     -15.944   8.875 -18.218  0.00  0.00    +0.012 A 
ENDROOT
BRANCH   5   8
ATOM      8  N   UNL     1     -14.214   5.608 -17.001  0.00  0.00    -0.269 N 
ATOM      9  H   UNL     1     -14.783   4.809 -16.767  0.00  0.00    +0.156 HD
ATOM     10  C   UNL     1     -12.850   5.361 -17.243  0.00  0.00    +0.306 C 
ATOM     11  N   UNL     1     -12.341   4.010 -17.079  0.00  0.00    -0.285 N 
ATOM     12  C   UNL     1     -13.116   2.833 -16.537  0.00  0.00    +0.109 C 
ATOM     13  C   UNL     1     -12.443   1.498 -16.416  0.00  0.00    +0.019 C 
ATOM     14  C   UNL     1     -11.094   2.061 -15.740  0.00  0.00    +0.003 C 
ATOM     15  C   UNL     1     -10.149   2.608 -16.923  0.00  0.00    +0.019 C 
ATOM     16  C   UNL     1     -10.822   3.943 -17.045  0.00  0.00    +0.109 C 
ATOM     17  O   UNL     1     -12.072   6.263 -17.565  0.00  0.00    -0.252 OA
ENDBRANCH   5   8
BRANCH   3  18
ATOM     18  N   UNL     1     -16.393   9.409 -14.569  0.00  0.00    +0.080 N 
ATOM     19  O   UNL     1     -17.088   8.702 -13.824  0.00  0.00    +0.041 OA
ATOM     20  O   UNL     1     -15.967  10.536 -14.277  0.00  0.00    -0.576 OA
ENDBRANCH   3  18
TORSDOF 2
ENDMDL
MODEL 7
REMARK VINA RESULT:      -6.3      3.739      5.145
REMARK  Name = min_compound919.pdb
REMARK  3 active torsions:
REMARK  status: ('A' for Active; 'I' for Inactive)
REMARK    1  A    between atoms: _1  and  _15
REMARK    2  A    between atoms: _2  and  _16
REMARK    3  A    between atoms: _6  and  _19
REMARK                            x       y       z     vdW  Elec       q    Type
REMARK                         _______ _______ _______ _____ _____    ______ ____
ROOT
ATOM      1  C   UNL     1     -18.248   4.350 -11.281  0.00  0.00    +0.027 A 
ATOM      2  C   UNL     1     -19.431   4.444 -10.361  0.00  0.00    +0.051 C 
ATOM      3  C   UNL     1     -17.042   5.081 -11.239  0.00  0.00    +0.278 A 
ATOM      4  C   UNL     1     -15.922   4.869 -12.168  0.00  0.00    +0.107 A 
ATOM      5  C   UNL     1     -15.942   3.909 -13.203  0.00  0.00    +0.041 A 
ATOM      6  C   UNL     1     -17.135   3.181 -13.258  0.00  0.00    +0.024 A 
ATOM      7  C   UNL     1     -18.234   3.393 -12.337  0.00  0.00    +0.012 A 
ENDROOT
BRANCH   5   8
ATOM      8  N   UNL     1     -14.787   3.740 -14.111  0.00  0.00    -0.269 N 
ATOM      9  H   UNL     1     -14.106   3.050 -13.831  0.00  0.00    +0.156 HD
ATOM     10  C   UNL     1     -14.535   4.420 -15.317  0.00  0.00    +0.306 C 
ATOM     11  N   UNL     1     -13.304   4.141 -16.036  0.00  0.00    -0.285 N 
ATOM     12  C   UNL     1     -12.173   3.268 -15.548  0.00  0.00    +0.109 C 
ATOM     13  C   UNL     1     -10.955   3.088 -16.406  0.00  0.00    +0.019 C 
ATOM     14  C   UNL     1     -10.782   4.648 -16.765  0.00  0.00    +0.003 C 
ATOM     15  C   UNL     1     -11.784   4.982 -17.980  0.00  0.00    +0.019 C 
ATOM     16  C   UNL     1     -13.002   5.162 -17.123  0.00  0.00    +0.109 C 
ATOM     17  O   UNL     1     -15.318   5.262 -15.765  0.00  0.00    -0.252 OA
ENDBRANCH   5   8
BRANCH   3  18
ATOM     18  N   UNL     1     -16.862   6.121 -10.220  0.00  0.00    +0.080 N 
ATOM     19  O   UNL     1     -16.203   5.821  -9.213  0.00  0.00    +0.041 OA
ATOM     20  O   UNL     1     -17.360   7.235 -10.431  0.00  0.00    -0.576 OA
ENDBRANCH   3  18
TORSDOF 2
ENDMDL
MODEL 8
REMARK VINA RESULT:      -6.2      3.610      4.252
REMARK  Name = min_compound919.pdb
REMARK  3 active torsions:
REMARK  status: ('A' for Active; 'I' for Inactive)
REMARK    1  A    between atoms: _1  and  _15
REMARK    2  A    between atoms: _2  and  _16
REMARK    3  A    between atoms: _6  and  _19
REMARK                            x       y       z     vdW  Elec       q    Type
REMARK                         _______ _______ _______ _____ _____    ______ ____
ROOT
ATOM      1  C   UNL     1     -18.722   3.615 -13.352  0.00  0.00    +0.027 A 
ATOM      2  C   UNL     1     -20.005   4.080 -12.726  0.00  0.00    +0.051 C 
ATOM      3  C   UNL     1     -17.479   3.375 -12.732  0.00  0.00    +0.278 A 
ATOM      4  C   UNL     1     -16.293   2.869 -13.440  0.00  0.00    +0.107 A 
ATOM      5  C   UNL     1     -16.280   2.574 -14.821  0.00  0.00    +0.041 A 
ATOM      6  C   UNL     1     -17.507   2.814 -15.448  0.00  0.00    +0.024 A 
ATOM      7  C   UNL     1     -18.672   3.309 -14.743  0.00  0.00    +0.012 A 
ENDROOT
BRANCH   5   8
ATOM      8  N   UNL     1     -15.058   2.069 -15.482  0.00  0.00    -0.269 N 
ATOM      9  H   UNL     1     -15.050   1.084 -15.697  0.00  0.00    +0.156 HD
ATOM     10  C   UNL     1     -13.915   2.803 -15.851  0.00  0.00    +0.306 C 
ATOM     11  N   UNL     1     -12.791   2.100 -16.446  0.00  0.00    -0.285 N 
ATOM     12  C   UNL     1     -12.665   0.604 -16.600  0.00  0.00    +0.109 C 
ATOM     13  C   UNL     1     -11.431   0.026 -17.227  0.00  0.00    +0.019 C 
ATOM     14  C   UNL     1     -10.391   0.924 -16.388  0.00  0.00    +0.003 C 
ATOM     15  C   UNL     1     -10.285   2.356 -17.117  0.00  0.00    +0.019 C 
ATOM     16  C   UNL     1     -11.519   2.933 -16.490  0.00  0.00    +0.109 C 
ATOM     17  O   UNL     1     -13.832   4.019 -15.660  0.00  0.00    -0.252 OA
ENDBRANCH   5   8
BRANCH   3  18
ATOM     18  N   UNL     1     -17.325   3.632 -11.295  0.00  0.00    +0.080 N 
ATOM     19  O   UNL     1     -17.329   2.651 -10.538  0.00  0.00    +0.041 OA
ATOM     20  O   UNL     1     -17.184   4.807 -10.927  0.00  0.00    -0.576 OA
ENDBRANCH   3  18
TORSDOF 2
ENDMDL
MODEL 9
REMARK VINA RESULT:      -6.1      8.097      9.870
REMARK  Name = min_compound919.pdb
REMARK  3 active torsions:
REMARK  status: ('A' for Active; 'I' for Inactive)
REMARK    1  A    between atoms: _1  and  _15
REMARK    2  A    between atoms: _2  and  _16
REMARK    3  A    between atoms: _6  and  _19
REMARK                            x       y       z     vdW  Elec       q    Type
REMARK                         _______ _______ _______ _____ _____    ______ ____
ROOT
ATOM      1  C   UNL     1     -16.282   1.889  -5.410  0.00  0.00    +0.027 A 
ATOM      2  C   UNL     1     -16.227   1.641  -3.930  0.00  0.00    +0.051 C 
ATOM      3  C   UNL     1     -15.633   1.182  -6.444  0.00  0.00    +0.278 A 
ATOM      4  C   UNL     1     -15.799   1.484  -7.873  0.00  0.00    +0.107 A 
ATOM      5  C   UNL     1     -16.628   2.519  -8.358  0.00  0.00    +0.041 A 
ATOM      6  C   UNL     1     -17.273   3.231  -7.341  0.00  0.00    +0.024 A 
ATOM      7  C   UNL     1     -17.108   2.925  -5.934  0.00  0.00    +0.012 A 
ENDROOT
BRANCH   5   8
ATOM      8  N   UNL     1     -16.757   2.779  -9.808  0.00  0.00    -0.269 N 
ATOM      9  H   UNL     1     -17.284   2.097 -10.331  0.00  0.00    +0.156 HD
ATOM     10  C   UNL     1     -16.240   3.868 -10.534  0.00  0.00    +0.306 C 
ATOM     11  N   UNL     1     -16.434   3.908 -11.973  0.00  0.00    -0.285 N 
ATOM     12  C   UNL     1     -17.041   2.811 -12.814  0.00  0.00    +0.109 C 
ATOM     13  C   UNL     1     -17.163   2.998 -14.298  0.00  0.00    +0.019 C 
ATOM     14  C   UNL     1     -15.668   3.557 -14.511  0.00  0.00    +0.003 C 
ATOM     15  C   UNL     1     -15.681   5.127 -14.151  0.00  0.00    +0.019 C 
ATOM     16  C   UNL     1     -15.559   4.940 -12.668  0.00  0.00    +0.109 C 
ATOM     17  O   UNL     1     -15.605   4.773  -9.987  0.00  0.00    -0.252 OA
ENDBRANCH   5   8
BRANCH   3  18
ATOM     18  N   UNL     1     -14.732   0.073  -6.107  0.00  0.00    +0.080 N 
ATOM     19  O   UNL     1     -15.171  -1.077  -6.248  0.00  0.00    +0.041 OA
ATOM     20  O   UNL     1     -13.588   0.351  -5.721  0.00  0.00    -0.576 OA
ENDBRANCH   3  18
TORSDOF 2
ENDMDL
