MODEL 1
REMARK VINA RESULT:      -5.4      0.000      0.000
REMARK  Name = min_compound97.pdb
REMARK  4 active torsions:
REMARK  status: ('A' for Active; 'I' for Inactive)
REMARK    1  A    between atoms: _5  and  _12
REMARK    2  A    between atoms: _5  and  _14
REMARK    3  A    between atoms: _9  and  _10
REMARK    4  A    between atoms: _14  and  _15
REMARK                            x       y       z     vdW  Elec       q    Type
REMARK                         _______ _______ _______ _____ _____    ______ ____
ROOT
ATOM      1  C   UNL     1     -13.905  -0.028  -6.206  0.00  0.00    +0.074 C 
ATOM      2  C   UNL     1     -14.876  -0.908  -5.928  0.00  0.00    +0.245 C 
ATOM      3  O   UNL     1     -16.097  -0.830  -6.598  0.00  0.00    -0.269 OA
ATOM      4  O   UNL     1     -16.491   0.596  -6.717  0.00  0.00    -0.247 OA
ATOM      5  C   UNL     1     -15.489   1.286  -7.404  0.00  0.00    +0.332 C 
ATOM      6  C   UNL     1     -14.201   1.020  -7.145  0.00  0.00    +0.096 C 
ENDROOT
BRANCH   2   7
ATOM      7  N   UNL     1     -14.668  -1.952  -5.066  0.00  0.00    -0.237 N 
ATOM      8  H   UNL     1     -14.197  -2.767  -5.426  0.00  0.00    +0.159 HD
ATOM      9  C   UNL     1     -14.859  -1.933  -3.711  0.00  0.00    +0.304 C 
ATOM     10  O   UNL     1     -15.199  -0.992  -3.013  0.00  0.00    -0.253 OA
ATOM     11  N   UNL     1     -14.598  -3.146  -3.144  0.00  0.00    -0.313 N 
ATOM     12  H   UNL     1     -14.927  -3.964  -3.639  0.00  0.00    +0.146 HD
ATOM     13  H   UNL     1     -14.809  -3.156  -2.153  0.00  0.00    +0.146 HD
ENDBRANCH   2   7
BRANCH   5  14
ATOM     14  O   UNL     1     -15.819   2.367  -8.194  0.00  0.00    -0.457 OA
BRANCH  14  15
ATOM     15  C   UNL     1     -16.904   2.083  -9.077  0.00  0.00    +0.259 C 
BRANCH  15  16
ATOM     16  C   UNL     1     -16.813   3.031 -10.239  0.00  0.00    +0.006 C 
ATOM     17  C   UNL     1     -15.916   4.020 -10.351  0.00  0.00    +0.007 C 
ENDBRANCH  15  16
ENDBRANCH  14  15
ENDBRANCH   5  14
TORSDOF 4
ENDMDL
MODEL 2
REMARK VINA RESULT:      -5.4     11.383     12.201
REMARK  Name = min_compound97.pdb
REMARK  4 active torsions:
REMARK  status: ('A' for Active; 'I' for Inactive)
REMARK    1  A    between atoms: _5  and  _12
REMARK    2  A    between atoms: _5  and  _14
REMARK    3  A    between atoms: _9  and  _10
REMARK    4  A    between atoms: _14  and  _15
REMARK                            x       y       z     vdW  Elec       q    Type
REMARK                         _______ _______ _______ _____ _____    ______ ____
ROOT
ATOM      1  C   UNL     1     -10.295   3.565 -15.848  0.00  0.00    +0.074 C 
ATOM      2  C   UNL     1     -10.910   2.492 -16.365  0.00  0.00    +0.245 C 
ATOM      3  O   UNL     1     -11.741   2.636 -17.476  0.00  0.00    -0.269 OA
ATOM      4  O   UNL     1     -12.553   3.868 -17.314  0.00  0.00    -0.247 OA
ATOM      5  C   UNL     1     -11.694   4.961 -17.177  0.00  0.00    +0.332 C 
ATOM      6  C   UNL     1     -10.588   4.848 -16.430  0.00  0.00    +0.096 C 
ENDROOT
BRANCH   2   7
ATOM      7  N   UNL     1     -10.667   1.231 -15.888  0.00  0.00    -0.237 N 
ATOM      8  H   UNL     1     -11.259   0.893 -15.144  0.00  0.00    +0.159 HD
ATOM      9  C   UNL     1      -9.831   0.302 -16.443  0.00  0.00    +0.304 C 
ATOM     10  O   UNL     1      -9.187   0.393 -17.476  0.00  0.00    -0.253 OA
ATOM     11  N   UNL     1      -9.783  -0.845 -15.706  0.00  0.00    -0.313 N 
ATOM     12  H   UNL     1      -9.745  -0.742 -14.701  0.00  0.00    +0.146 HD
ATOM     13  H   UNL     1      -9.110  -1.506 -16.074  0.00  0.00    +0.146 HD
ENDBRANCH   2   7
BRANCH   5  14
ATOM     14  O   UNL     1     -12.081   6.200 -17.643  0.00  0.00    -0.457 OA
BRANCH  14  15
ATOM     15  C   UNL     1     -12.439   6.174 -19.024  0.00  0.00    +0.259 C 
BRANCH  15  16
ATOM     16  C   UNL     1     -11.527   7.118 -19.754  0.00  0.00    +0.006 C 
ATOM     17  C   UNL     1     -11.325   7.118 -21.079  0.00  0.00    +0.007 C 
ENDBRANCH  15  16
ENDBRANCH  14  15
ENDBRANCH   5  14
TORSDOF 4
ENDMDL
MODEL 3
REMARK VINA RESULT:      -5.2     11.629     13.019
REMARK  Name = min_compound97.pdb
REMARK  4 active torsions:
REMARK  status: ('A' for Active; 'I' for Inactive)
REMARK    1  A    between atoms: _5  and  _12
REMARK    2  A    between atoms: _5  and  _14
REMARK    3  A    between atoms: _9  and  _10
REMARK    4  A    between atoms: _14  and  _15
REMARK                            x       y       z     vdW  Elec       q    Type
REMARK                         _______ _______ _______ _____ _____    ______ ____
ROOT
ATOM      1  C   UNL     1     -11.061   4.645 -16.619  0.00  0.00    +0.074 C 
ATOM      2  C   UNL     1     -12.335   4.621 -17.035  0.00  0.00    +0.245 C 
ATOM      3  O   UNL     1     -12.926   3.410 -17.396  0.00  0.00    -0.269 OA
ATOM      4  O   UNL     1     -11.946   2.608 -18.171  0.00  0.00    -0.247 OA
ATOM      5  C   UNL     1     -10.807   2.405 -17.388  0.00  0.00    +0.332 C 
ATOM      6  C   UNL     1     -10.329   3.407 -16.637  0.00  0.00    +0.096 C 
ENDROOT
BRANCH   2   7
ATOM      7  N   UNL     1     -13.111   5.750 -17.024  0.00  0.00    -0.237 N 
ATOM      8  H   UNL     1     -13.814   5.825 -16.306  0.00  0.00    +0.159 HD
ATOM      9  C   UNL     1     -12.907   6.880 -17.768  0.00  0.00    +0.304 C 
ATOM     10  O   UNL     1     -11.988   7.119 -18.535  0.00  0.00    -0.253 OA
ATOM     11  N   UNL     1     -13.880   7.812 -17.554  0.00  0.00    -0.313 N 
ATOM     12  H   UNL     1     -14.830   7.475 -17.490  0.00  0.00    +0.146 HD
ATOM     13  H   UNL     1     -13.772   8.619 -18.157  0.00  0.00    +0.146 HD
ENDBRANCH   2   7
BRANCH   5  14
ATOM     14  O   UNL     1     -10.069   1.251 -17.537  0.00  0.00    -0.457 OA
BRANCH  14  15
ATOM     15  C   UNL     1     -10.892   0.096 -17.702  0.00  0.00    +0.259 C 
BRANCH  15  16
ATOM     16  C   UNL     1     -10.934  -0.631 -16.388  0.00  0.00    +0.006 C 
ATOM     17  C   UNL     1      -9.863  -0.912 -15.634  0.00  0.00    +0.007 C 
ENDBRANCH  15  16
ENDBRANCH  14  15
ENDBRANCH   5  14
TORSDOF 4
ENDMDL
MODEL 4
REMARK VINA RESULT:      -5.1      9.234     10.415
REMARK  Name = min_compound97.pdb
REMARK  4 active torsions:
REMARK  status: ('A' for Active; 'I' for Inactive)
REMARK    1  A    between atoms: _5  and  _12
REMARK    2  A    between atoms: _5  and  _14
REMARK    3  A    between atoms: _9  and  _10
REMARK    4  A    between atoms: _14  and  _15
REMARK                            x       y       z     vdW  Elec       q    Type
REMARK                         _______ _______ _______ _____ _____    ______ ____
ROOT
ATOM      1  C   UNL     1     -13.154   1.456 -16.665  0.00  0.00    +0.074 C 
ATOM      2  C   UNL     1     -11.901   1.918 -16.550  0.00  0.00    +0.245 C 
ATOM      3  O   UNL     1     -11.637   3.013 -15.727  0.00  0.00    -0.269 OA
ATOM      4  O   UNL     1     -12.716   4.018 -15.901  0.00  0.00    -0.247 OA
ATOM      5  C   UNL     1     -13.941   3.426 -15.583  0.00  0.00    +0.332 C 
ATOM      6  C   UNL     1     -14.196   2.171 -15.978  0.00  0.00    +0.096 C 
ENDROOT
BRANCH   2   7
ATOM      7  N   UNL     1     -10.847   1.281 -17.150  0.00  0.00    -0.237 N 
ATOM      8  H   UNL     1     -10.660   1.499 -18.116  0.00  0.00    +0.159 HD
ATOM      9  C   UNL     1      -9.897   0.523 -16.523  0.00  0.00    +0.304 C 
ATOM     10  O   UNL     1      -9.775   0.307 -15.327  0.00  0.00    -0.253 OA
ATOM     11  N   UNL     1      -9.001  -0.004 -17.407  0.00  0.00    -0.313 N 
ATOM     12  H   UNL     1      -9.372  -0.365 -18.274  0.00  0.00    +0.146 HD
ATOM     13  H   UNL     1      -8.340  -0.624 -16.955  0.00  0.00    +0.146 HD
ENDBRANCH   2   7
BRANCH   5  14
ATOM     14  O   UNL     1     -14.952   4.190 -15.041  0.00  0.00    -0.457 OA
BRANCH  14  15
ATOM     15  C   UNL     1     -14.903   4.224 -13.615  0.00  0.00    +0.259 C 
BRANCH  15  16
ATOM     16  C   UNL     1     -16.245   3.792 -13.097  0.00  0.00    +0.006 C 
ATOM     17  C   UNL     1     -16.926   2.724 -13.532  0.00  0.00    +0.007 C 
ENDBRANCH  15  16
ENDBRANCH  14  15
ENDBRANCH   5  14
TORSDOF 4
ENDMDL
MODEL 5
REMARK VINA RESULT:      -5.1     10.715     11.342
REMARK  Name = min_compound97.pdb
REMARK  4 active torsions:
REMARK  status: ('A' for Active; 'I' for Inactive)
REMARK    1  A    between atoms: _5  and  _12
REMARK    2  A    between atoms: _5  and  _14
REMARK    3  A    between atoms: _9  and  _10
REMARK    4  A    between atoms: _14  and  _15
REMARK                            x       y       z     vdW  Elec       q    Type
REMARK                         _______ _______ _______ _____ _____    ______ ____
ROOT
ATOM      1  C   UNL     1     -10.337   3.225 -16.168  0.00  0.00    +0.074 C 
ATOM      2  C   UNL     1     -10.965   2.046 -16.062  0.00  0.00    +0.245 C 
ATOM      3  O   UNL     1     -12.301   1.933 -16.449  0.00  0.00    -0.269 OA
ATOM      4  O   UNL     1     -13.039   3.136 -15.991  0.00  0.00    -0.247 OA
ATOM      5  C   UNL     1     -12.443   4.271 -16.545  0.00  0.00    +0.332 C 
ATOM      6  C   UNL     1     -11.108   4.355 -16.614  0.00  0.00    +0.096 C 
ENDROOT
BRANCH   2   7
ATOM      7  N   UNL     1     -10.299   0.915 -15.670  0.00  0.00    -0.237 N 
ATOM      8  H   UNL     1     -10.171   0.769 -14.681  0.00  0.00    +0.159 HD
ATOM      9  C   UNL     1      -9.957  -0.140 -16.470  0.00  0.00    +0.304 C 
ATOM     10  O   UNL     1     -10.212  -0.302 -17.653  0.00  0.00    -0.253 OA
ATOM     11  N   UNL     1      -9.267  -1.097 -15.783  0.00  0.00    -0.313 N 
ATOM     12  H   UNL     1      -8.567  -0.775 -15.129  0.00  0.00    +0.146 HD
ATOM     13  H   UNL     1      -8.949  -1.844 -16.388  0.00  0.00    +0.146 HD
ENDBRANCH   2   7
BRANCH   5  14
ATOM     14  O   UNL     1     -13.214   5.377 -16.838  0.00  0.00    -0.457 OA
BRANCH  14  15
ATOM     15  C   UNL     1     -12.533   6.305 -17.683  0.00  0.00    +0.259 C 
BRANCH  15  16
ATOM     16  C   UNL     1     -13.459   7.460 -17.938  0.00  0.00    +0.006 C 
ATOM     17  C   UNL     1     -14.521   7.772 -17.182  0.00  0.00    +0.007 C 
ENDBRANCH  15  16
ENDBRANCH  14  15
ENDBRANCH   5  14
TORSDOF 4
ENDMDL
MODEL 6
REMARK VINA RESULT:      -5.1      3.354      5.706
REMARK  Name = min_compound97.pdb
REMARK  4 active torsions:
REMARK  status: ('A' for Active; 'I' for Inactive)
REMARK    1  A    between atoms: _5  and  _12
REMARK    2  A    between atoms: _5  and  _14
REMARK    3  A    between atoms: _9  and  _10
REMARK    4  A    between atoms: _14  and  _15
REMARK                            x       y       z     vdW  Elec       q    Type
REMARK                         _______ _______ _______ _____ _____    ______ ____
ROOT
ATOM      1  C   UNL     1     -15.320   1.449  -7.800  0.00  0.00    +0.074 C 
ATOM      2  C   UNL     1     -16.539   1.888  -7.459  0.00  0.00    +0.245 C 
ATOM      3  O   UNL     1     -16.963   1.802  -6.132  0.00  0.00    -0.269 OA
ATOM      4  O   UNL     1     -16.532   0.497  -5.572  0.00  0.00    -0.247 OA
ATOM      5  C   UNL     1     -15.142   0.399  -5.670  0.00  0.00    +0.332 C 
ATOM      6  C   UNL     1     -14.521   0.832  -6.776  0.00  0.00    +0.096 C 
ENDROOT
BRANCH   2   7
ATOM      7  N   UNL     1     -17.354   2.511  -8.367  0.00  0.00    -0.237 N 
ATOM      8  H   UNL     1     -16.950   3.244  -8.929  0.00  0.00    +0.159 HD
ATOM      9  C   UNL     1     -18.612   2.116  -8.732  0.00  0.00    +0.304 C 
ATOM     10  O   UNL     1     -19.225   1.125  -8.365  0.00  0.00    -0.253 OA
ATOM     11  N   UNL     1     -19.173   2.972  -9.633  0.00  0.00    -0.313 N 
ATOM     12  H   UNL     1     -19.036   3.960  -9.473  0.00  0.00    +0.146 HD
ATOM     13  H   UNL     1     -20.131   2.723  -9.849  0.00  0.00    +0.146 HD
ENDBRANCH   2   7
BRANCH   5  14
ATOM     14  O   UNL     1     -14.437  -0.314  -4.725  0.00  0.00    -0.457 OA
BRANCH  14  15
ATOM     15  C   UNL     1     -14.489   0.293  -3.434  0.00  0.00    +0.259 C 
BRANCH  15  16
ATOM     16  C   UNL     1     -13.344   1.260  -3.332  0.00  0.00    +0.006 C 
ATOM     17  C   UNL     1     -13.431   2.577  -3.558  0.00  0.00    +0.007 C 
ENDBRANCH  15  16
ENDBRANCH  14  15
ENDBRANCH   5  14
TORSDOF 4
ENDMDL
MODEL 7
REMARK VINA RESULT:      -5.0     10.075     11.356
REMARK  Name = min_compound97.pdb
REMARK  4 active torsions:
REMARK  status: ('A' for Active; 'I' for Inactive)
REMARK    1  A    between atoms: _5  and  _12
REMARK    2  A    between atoms: _5  and  _14
REMARK    3  A    between atoms: _9  and  _10
REMARK    4  A    between atoms: _14  and  _15
REMARK                            x       y       z     vdW  Elec       q    Type
REMARK                         _______ _______ _______ _____ _____    ______ ____
ROOT
ATOM      1  C   UNL     1     -13.897   2.276 -16.259  0.00  0.00    +0.074 C 
ATOM      2  C   UNL     1     -13.411   3.304 -15.550  0.00  0.00    +0.245 C 
ATOM      3  O   UNL     1     -12.145   3.814 -15.843  0.00  0.00    -0.269 OA
ATOM      4  O   UNL     1     -11.222   2.684 -16.117  0.00  0.00    -0.247 OA
ATOM      5  C   UNL     1     -11.728   1.934 -17.181  0.00  0.00    +0.332 C 
ATOM      6  C   UNL     1     -13.043   1.689 -17.257  0.00  0.00    +0.096 C 
ENDROOT
BRANCH   2   7
ATOM      7  N   UNL     1     -14.167   3.938 -14.600  0.00  0.00    -0.237 N 
ATOM      8  H   UNL     1     -13.917   3.793 -13.633  0.00  0.00    +0.159 HD
ATOM      9  C   UNL     1     -15.108   4.904 -14.826  0.00  0.00    +0.304 C 
ATOM     10  O   UNL     1     -15.421   5.415 -15.889  0.00  0.00    -0.253 OA
ATOM     11  N   UNL     1     -15.711   5.307 -13.670  0.00  0.00    -0.313 N 
ATOM     12  H   UNL     1     -15.949   4.587 -13.002  0.00  0.00    +0.146 HD
ATOM     13  H   UNL     1     -16.459   5.968 -13.842  0.00  0.00    +0.146 HD
ENDBRANCH   2   7
BRANCH   5  14
ATOM     14  O   UNL     1     -10.862   1.286 -18.036  0.00  0.00    -0.457 OA
BRANCH  14  15
ATOM     15  C   UNL     1      -9.638   0.922 -17.397  0.00  0.00    +0.259 C 
BRANCH  15  16
ATOM     16  C   UNL     1      -9.757  -0.510 -16.957  0.00  0.00    +0.006 C 
ATOM     17  C   UNL     1      -9.871  -0.912 -15.684  0.00  0.00    +0.007 C 
ENDBRANCH  15  16
ENDBRANCH  14  15
ENDBRANCH   5  14
TORSDOF 4
ENDMDL
MODEL 8
REMARK VINA RESULT:      -4.9     10.829     12.118
REMARK  Name = min_compound97.pdb
REMARK  4 active torsions:
REMARK  status: ('A' for Active; 'I' for Inactive)
REMARK    1  A    between atoms: _5  and  _12
REMARK    2  A    between atoms: _5  and  _14
REMARK    3  A    between atoms: _9  and  _10
REMARK    4  A    between atoms: _14  and  _15
REMARK                            x       y       z     vdW  Elec       q    Type
REMARK                         _______ _______ _______ _____ _____    ______ ____
ROOT
ATOM      1  C   UNL     1     -11.943   4.671 -16.943  0.00  0.00    +0.074 C 
ATOM      2  C   UNL     1     -13.108   4.284 -16.405  0.00  0.00    +0.245 C 
ATOM      3  O   UNL     1     -13.156   3.151 -15.592  0.00  0.00    -0.269 OA
ATOM      4  O   UNL     1     -12.301   2.094 -16.187  0.00  0.00    -0.247 OA
ATOM      5  C   UNL     1     -10.997   2.581 -16.306  0.00  0.00    +0.332 C 
ATOM      6  C   UNL     1     -10.791   3.842 -16.710  0.00  0.00    +0.096 C 
ENDROOT
BRANCH   2   7
ATOM      7  N   UNL     1     -14.247   5.030 -16.556  0.00  0.00    -0.237 N 
ATOM      8  H   UNL     1     -14.210   5.998 -16.275  0.00  0.00    +0.159 HD
ATOM      9  C   UNL     1     -15.378   4.655 -17.228  0.00  0.00    +0.304 C 
ATOM     10  O   UNL     1     -15.574   3.625 -17.853  0.00  0.00    -0.253 OA
ATOM     11  N   UNL     1     -16.349   5.611 -17.163  0.00  0.00    -0.313 N 
ATOM     12  H   UNL     1     -16.481   6.070 -16.273  0.00  0.00    +0.146 HD
ATOM     13  H   UNL     1     -17.213   5.306 -17.596  0.00  0.00    +0.146 HD
ENDBRANCH   2   7
BRANCH   5  14
ATOM     14  O   UNL     1      -9.930   1.715 -16.199  0.00  0.00    -0.457 OA
BRANCH  14  15
ATOM     15  C   UNL     1      -9.709   0.974 -17.399  0.00  0.00    +0.259 C 
BRANCH  15  16
ATOM     16  C   UNL     1      -9.762  -0.488 -17.054  0.00  0.00    +0.006 C 
ATOM     17  C   UNL     1      -9.779  -0.980 -15.808  0.00  0.00    +0.007 C 
ENDBRANCH  15  16
ENDBRANCH  14  15
ENDBRANCH   5  14
TORSDOF 4
ENDMDL
MODEL 9
REMARK VINA RESULT:      -4.8      1.837      2.542
REMARK  Name = min_compound97.pdb
REMARK  4 active torsions:
REMARK  status: ('A' for Active; 'I' for Inactive)
REMARK    1  A    between atoms: _5  and  _12
REMARK    2  A    between atoms: _5  and  _14
REMARK    3  A    between atoms: _9  and  _10
REMARK    4  A    between atoms: _14  and  _15
REMARK                            x       y       z     vdW  Elec       q    Type
REMARK                         _______ _______ _______ _____ _____    ______ ____
ROOT
ATOM      1  C   UNL     1     -14.025   0.469  -3.371  0.00  0.00    +0.074 C 
ATOM      2  C   UNL     1     -14.308  -0.836  -3.258  0.00  0.00    +0.245 C 
ATOM      3  O   UNL     1     -14.426  -1.623  -4.404  0.00  0.00    -0.269 OA
ATOM      4  O   UNL     1     -15.164  -0.858  -5.440  0.00  0.00    -0.247 OA
ATOM      5  C   UNL     1     -14.473   0.327  -5.705  0.00  0.00    +0.332 C 
ATOM      6  C   UNL     1     -13.929   1.021  -4.696  0.00  0.00    +0.096 C 
ENDROOT
BRANCH   2   7
ATOM      7  N   UNL     1     -14.390  -1.446  -2.034  0.00  0.00    -0.237 N 
ATOM      8  H   UNL     1     -13.553  -1.480  -1.474  0.00  0.00    +0.159 HD
ATOM      9  C   UNL     1     -15.537  -1.845  -1.405  0.00  0.00    +0.304 C 
ATOM     10  O   UNL     1     -16.690  -1.698  -1.777  0.00  0.00    -0.253 OA
ATOM     11  N   UNL     1     -15.277  -2.455  -0.212  0.00  0.00    -0.313 N 
ATOM     12  H   UNL     1     -14.497  -3.096  -0.186  0.00  0.00    +0.146 HD
ATOM     13  H   UNL     1     -16.118  -2.816   0.222  0.00  0.00    +0.146 HD
ENDBRANCH   2   7
BRANCH   5  14
ATOM     14  O   UNL     1     -14.520   0.880  -6.967  0.00  0.00    -0.457 OA
BRANCH  14  15
ATOM     15  C   UNL     1     -15.816   0.778  -7.558  0.00  0.00    +0.259 C 
BRANCH  15  16
ATOM     16  C   UNL     1     -16.167   2.120  -8.133  0.00  0.00    +0.006 C 
ATOM     17  C   UNL     1     -16.769   2.313  -9.315  0.00  0.00    +0.007 C 
ENDBRANCH  15  16
ENDBRANCH  14  15
ENDBRANCH   5  14
TORSDOF 4
ENDMDL
