MODEL 1
REMARK VINA RESULT:      -7.3      0.000      0.000
REMARK  Name = min_compound969.pdb
REMARK  5 active torsions:
REMARK  status: ('A' for Active; 'I' for Inactive)
REMARK    1  A    between atoms: _2  and  _5
REMARK    2  A    between atoms: _10  and  _16
REMARK    3  A    between atoms: _12  and  _17
REMARK    4  A    between atoms: _14  and  _17
REMARK    5  A    between atoms: _15  and  _19
REMARK                            x       y       z     vdW  Elec       q    Type
REMARK                         _______ _______ _______ _____ _____    ______ ____
ROOT
ATOM      1  N   UNL     1     -14.613  -3.075  -3.115  0.00  0.00    -0.284 N 
ATOM      2  H   UNL     1     -14.219  -3.460  -3.967  0.00  0.00    +0.155 HD
ATOM      3  C   UNL     1     -14.268  -3.660  -1.918  0.00  0.00    +0.229 C 
ATOM      4  O   UNL     1     -14.400  -2.977  -0.884  0.00  0.00    -0.275 OA
ENDROOT
BRANCH   1   7
ATOM      5  C   UNL     1     -14.914   0.791  -3.505  0.00  0.00    +0.057 A 
ATOM      6  C   UNL     1     -14.372  -0.536  -3.354  0.00  0.00    +0.037 A 
ATOM      7  C   UNL     1     -15.160  -1.721  -3.225  0.00  0.00    +0.052 A 
ATOM      8  C   UNL     1     -16.548  -1.541  -3.210  0.00  0.00    +0.062 A 
ATOM      9 CL   UNL     1     -17.617  -2.894  -3.055  0.00  0.00    -0.082 Cl
ATOM     10  C   UNL     1     -17.113  -0.262  -3.354  0.00  0.00    +0.022 A 
ATOM     11  C   UNL     1     -16.311   0.886  -3.497  0.00  0.00    +0.014 A 
BRANCH   5  13
ATOM     12  F   UNL     1     -12.914   1.181  -2.897  0.00  0.00    -0.166 F 
ATOM     13  C   UNL     1     -13.949   1.940  -3.527  0.00  0.00    +0.417 C 
ATOM     14  F   UNL     1     -13.693   1.774  -4.922  0.00  0.00    -0.166 F 
ATOM     15  F   UNL     1     -12.985   3.089  -3.548  0.00  0.00    -0.166 F 
ENDBRANCH   5  13
ENDBRANCH   1   7
BRANCH   3  16
ATOM     16  C   UNL     1     -13.568  -4.981  -1.797  0.00  0.00    +0.224 C 
BRANCH  16  17
ATOM     17  C   UNL     1     -12.639  -4.674  -0.554  0.00  0.00    +0.282 C 
ATOM     18  N   UNL     1     -11.667  -3.700  -0.679  0.00  0.00    -0.288 N 
ATOM     19  H   UNL     1     -12.063  -2.838  -1.055  0.00  0.00    +0.301 HD
ATOM     20  H   UNL     1     -11.271  -3.523   0.242  0.00  0.00    +0.301 HD
ATOM     21  N   UNL     1     -12.805  -5.394   0.518  0.00  0.00    -0.136 N 
ATOM     22  H   UNL     1     -13.475  -6.108   0.618  0.00  0.00    +0.348 HD
BRANCH  21  23
ATOM     23  O   UNL     1     -11.889  -5.004   1.511  0.00  0.00    -0.210 OA
ATOM     24  H   UNL     1     -11.385  -4.300   1.063  0.00  0.00    +0.271 HD
ENDBRANCH  21  23
ENDBRANCH  16  17
ENDBRANCH   3  16
TORSDOF 5
ENDMDL
MODEL 2
REMARK VINA RESULT:      -6.9      6.320      8.499
REMARK  Name = min_compound969.pdb
REMARK  5 active torsions:
REMARK  status: ('A' for Active; 'I' for Inactive)
REMARK    1  A    between atoms: _2  and  _5
REMARK    2  A    between atoms: _10  and  _16
REMARK    3  A    between atoms: _12  and  _17
REMARK    4  A    between atoms: _14  and  _17
REMARK    5  A    between atoms: _15  and  _19
REMARK                            x       y       z     vdW  Elec       q    Type
REMARK                         _______ _______ _______ _____ _____    ______ ____
ROOT
ATOM      1  N   UNL     1     -17.143   1.669  -7.640  0.00  0.00    -0.284 N 
ATOM      2  H   UNL     1     -18.053   1.734  -7.195  0.00  0.00    +0.155 HD
ATOM      3  C   UNL     1     -16.899   2.463  -8.737  0.00  0.00    +0.229 C 
ATOM      4  O   UNL     1     -15.710   2.695  -9.026  0.00  0.00    -0.275 OA
ENDROOT
BRANCH   1   7
ATOM      5  C   UNL     1     -14.337   1.116  -4.992  0.00  0.00    +0.057 A 
ATOM      6  C   UNL     1     -15.348   1.733  -5.814  0.00  0.00    +0.037 A 
ATOM      7  C   UNL     1     -16.086   1.056  -6.834  0.00  0.00    +0.052 A 
ATOM      8  C   UNL     1     -15.752  -0.286  -7.050  0.00  0.00    +0.062 A 
ATOM      9 CL   UNL     1     -16.566  -1.220  -8.259  0.00  0.00    -0.082 Cl
ATOM     10  C   UNL     1     -14.770  -0.921  -6.269  0.00  0.00    +0.022 A 
ATOM     11  C   UNL     1     -14.072  -0.233  -5.259  0.00  0.00    +0.014 A 
BRANCH   5  13
ATOM     12  F   UNL     1     -14.776   2.635  -3.570  0.00  0.00    -0.166 F 
ATOM     13  C   UNL     1     -13.586   1.993  -4.035  0.00  0.00    +0.417 C 
ATOM     14  F   UNL     1     -13.395   0.919  -3.112  0.00  0.00    -0.166 F 
ATOM     15  F   UNL     1     -12.834   2.869  -3.077  0.00  0.00    -0.166 F 
ENDBRANCH   5  13
ENDBRANCH   1   7
BRANCH   3  16
ATOM     16  C   UNL     1     -17.959   3.220  -9.481  0.00  0.00    +0.224 C 
BRANCH  16  17
ATOM     17  C   UNL     1     -17.247   4.628  -9.593  0.00  0.00    +0.282 C 
ATOM     18  N   UNL     1     -16.852   5.074 -10.839  0.00  0.00    -0.288 N 
ATOM     19  H   UNL     1     -17.618   5.003 -11.511  0.00  0.00    +0.301 HD
ATOM     20  H   UNL     1     -16.559   6.045 -10.754  0.00  0.00    +0.301 HD
ATOM     21  N   UNL     1     -17.023   5.282  -8.490  0.00  0.00    -0.136 N 
ATOM     22  H   UNL     1     -17.275   4.971  -7.590  0.00  0.00    +0.348 HD
BRANCH  21  23
ATOM     23  O   UNL     1     -16.369   6.495  -8.767  0.00  0.00    -0.210 OA
ATOM     24  H   UNL     1     -16.126   6.807  -7.875  0.00  0.00    +0.271 HD
ENDBRANCH  21  23
ENDBRANCH  16  17
ENDBRANCH   3  16
TORSDOF 5
ENDMDL
MODEL 3
REMARK VINA RESULT:      -6.5     15.787     17.497
REMARK  Name = min_compound969.pdb
REMARK  5 active torsions:
REMARK  status: ('A' for Active; 'I' for Inactive)
REMARK    1  A    between atoms: _2  and  _5
REMARK    2  A    between atoms: _10  and  _16
REMARK    3  A    between atoms: _12  and  _17
REMARK    4  A    between atoms: _14  and  _17
REMARK    5  A    between atoms: _15  and  _19
REMARK                            x       y       z     vdW  Elec       q    Type
REMARK                         _______ _______ _______ _____ _____    ______ ____
ROOT
ATOM      1  N   UNL     1     -12.997   3.713 -19.048  0.00  0.00    -0.284 N 
ATOM      2  H   UNL     1     -12.531   3.807 -19.945  0.00  0.00    +0.155 HD
ATOM      3  C   UNL     1     -14.357   3.500 -19.042  0.00  0.00    +0.229 C 
ATOM      4  O   UNL     1     -14.854   2.989 -18.020  0.00  0.00    -0.275 OA
ENDROOT
BRANCH   1   7
ATOM      5  C   UNL     1     -10.785   1.815 -16.461  0.00  0.00    +0.057 A 
ATOM      6  C   UNL     1     -11.678   2.103 -17.556  0.00  0.00    +0.037 A 
ATOM      7  C   UNL     1     -12.126   3.413 -17.910  0.00  0.00    +0.052 A 
ATOM      8  C   UNL     1     -11.681   4.460 -17.095  0.00  0.00    +0.062 A 
ATOM      9 CL   UNL     1     -12.154   6.095 -17.411  0.00  0.00    -0.082 Cl
ATOM     10  C   UNL     1     -10.811   4.217 -16.017  0.00  0.00    +0.022 A 
ATOM     11  C   UNL     1     -10.372   2.917 -15.703  0.00  0.00    +0.014 A 
BRANCH   5  13
ATOM     12  F   UNL     1      -9.311   0.369 -16.967  0.00  0.00    -0.166 F 
ATOM     13  C   UNL     1     -10.492   0.375 -16.161  0.00  0.00    +0.417 C 
ATOM     14  F   UNL     1     -10.010   0.686 -14.853  0.00  0.00    -0.166 F 
ATOM     15  F   UNL     1     -10.198  -1.065 -15.860  0.00  0.00    -0.166 F 
ENDBRANCH   5  13
ENDBRANCH   1   7
BRANCH   3  16
ATOM     16  C   UNL     1     -15.240   3.657 -20.244  0.00  0.00    +0.224 C 
BRANCH  16  17
ATOM     17  C   UNL     1     -14.446   2.755 -21.273  0.00  0.00    +0.282 C 
ATOM     18  N   UNL     1     -14.129   3.282 -22.509  0.00  0.00    -0.288 N 
ATOM     19  H   UNL     1     -13.683   4.195 -22.412  0.00  0.00    +0.301 HD
ATOM     20  H   UNL     1     -13.496   2.639 -22.979  0.00  0.00    +0.301 HD
ATOM     21  N   UNL     1     -14.172   1.533 -20.919  0.00  0.00    -0.136 N 
ATOM     22  H   UNL     1     -14.410   1.130 -20.052  0.00  0.00    +0.348 HD
BRANCH  21  23
ATOM     23  O   UNL     1     -13.487   0.869 -21.952  0.00  0.00    -0.210 OA
ATOM     24  H   UNL     1     -14.205   0.668 -22.580  0.00  0.00    +0.271 HD
ENDBRANCH  21  23
ENDBRANCH  16  17
ENDBRANCH   3  16
TORSDOF 5
ENDMDL
MODEL 4
REMARK VINA RESULT:      -6.5     14.545     15.840
REMARK  Name = min_compound969.pdb
REMARK  5 active torsions:
REMARK  status: ('A' for Active; 'I' for Inactive)
REMARK    1  A    between atoms: _2  and  _5
REMARK    2  A    between atoms: _10  and  _16
REMARK    3  A    between atoms: _12  and  _17
REMARK    4  A    between atoms: _14  and  _17
REMARK    5  A    between atoms: _15  and  _19
REMARK                            x       y       z     vdW  Elec       q    Type
REMARK                         _______ _______ _______ _____ _____    ______ ____
ROOT
ATOM      1  N   UNL     1     -14.085   4.292 -16.621  0.00  0.00    -0.284 N 
ATOM      2  H   UNL     1     -14.638   4.333 -17.471  0.00  0.00    +0.155 HD
ATOM      3  C   UNL     1     -14.710   4.571 -15.427  0.00  0.00    +0.229 C 
ATOM      4  O   UNL     1     -14.180   4.138 -14.385  0.00  0.00    -0.275 OA
ENDROOT
BRANCH   1   7
ATOM      5  C   UNL     1     -11.446   1.425 -16.666  0.00  0.00    +0.057 A 
ATOM      6  C   UNL     1     -12.684   2.151 -16.525  0.00  0.00    +0.037 A 
ATOM      7  C   UNL     1     -12.822   3.560 -16.721  0.00  0.00    +0.052 A 
ATOM      8  C   UNL     1     -11.649   4.258 -17.033  0.00  0.00    +0.062 A 
ATOM      9 CL   UNL     1     -11.677   5.969 -17.291  0.00  0.00    -0.082 Cl
ATOM     10  C   UNL     1     -10.424   3.584 -17.178  0.00  0.00    +0.022 A 
ATOM     11  C   UNL     1     -10.322   2.192 -16.995  0.00  0.00    +0.014 A 
BRANCH   5  13
ATOM     12  F   UNL     1     -11.091  -0.423 -17.655  0.00  0.00    -0.166 F 
ATOM     13  C   UNL     1     -11.451  -0.036 -16.326  0.00  0.00    +0.417 C 
ATOM     14  F   UNL     1     -10.198   0.059 -15.648  0.00  0.00    -0.166 F 
ATOM     15  F   UNL     1     -11.457  -1.497 -15.986  0.00  0.00    -0.166 F 
ENDBRANCH   5  13
ENDBRANCH   1   7
BRANCH   3  16
ATOM     16  C   UNL     1     -16.075   5.184 -15.313  0.00  0.00    +0.224 C 
BRANCH  16  17
ATOM     17  C   UNL     1     -15.743   6.383 -14.335  0.00  0.00    +0.282 C 
ATOM     18  N   UNL     1     -15.800   6.162 -12.973  0.00  0.00    -0.288 N 
ATOM     19  H   UNL     1     -15.266   5.330 -12.717  0.00  0.00    +0.301 HD
ATOM     20  H   UNL     1     -15.414   6.976 -12.500  0.00  0.00    +0.301 HD
ATOM     21  N   UNL     1     -15.479   7.541 -14.867  0.00  0.00    -0.136 N 
ATOM     22  H   UNL     1     -15.458   7.725 -15.834  0.00  0.00    +0.348 HD
BRANCH  21  23
ATOM     23  O   UNL     1     -15.229   8.493 -13.863  0.00  0.00    -0.210 OA
ATOM     24  H   UNL     1     -15.906   8.270 -13.196  0.00  0.00    +0.271 HD
ENDBRANCH  21  23
ENDBRANCH  16  17
ENDBRANCH   3  16
TORSDOF 5
ENDMDL
MODEL 5
REMARK VINA RESULT:      -6.4     14.515     15.802
REMARK  Name = min_compound969.pdb
REMARK  5 active torsions:
REMARK  status: ('A' for Active; 'I' for Inactive)
REMARK    1  A    between atoms: _2  and  _5
REMARK    2  A    between atoms: _10  and  _16
REMARK    3  A    between atoms: _12  and  _17
REMARK    4  A    between atoms: _14  and  _17
REMARK    5  A    between atoms: _15  and  _19
REMARK                            x       y       z     vdW  Elec       q    Type
REMARK                         _______ _______ _______ _____ _____    ______ ____
ROOT
ATOM      1  N   UNL     1     -13.243   3.627 -15.108  0.00  0.00    -0.284 N 
ATOM      2  H   UNL     1     -13.068   4.471 -14.571  0.00  0.00    +0.155 HD
ATOM      3  C   UNL     1     -14.549   3.302 -15.398  0.00  0.00    +0.229 C 
ATOM      4  O   UNL     1     -14.750   2.540 -16.363  0.00  0.00    -0.275 OA
ENDROOT
BRANCH   1   7
ATOM      5  C   UNL     1     -10.421   1.259 -16.379  0.00  0.00    +0.057 A 
ATOM      6  C   UNL     1     -11.525   1.800 -15.626  0.00  0.00    +0.037 A 
ATOM      7  C   UNL     1     -12.094   3.093 -15.841  0.00  0.00    +0.052 A 
ATOM      8  C   UNL     1     -11.491   3.876 -16.832  0.00  0.00    +0.062 A 
ATOM      9 CL   UNL     1     -12.081   5.464 -17.190  0.00  0.00    -0.082 Cl
ATOM     10  C   UNL     1     -10.412   3.383 -17.586  0.00  0.00    +0.022 A 
ATOM     11  C   UNL     1      -9.883   2.097 -17.363  0.00  0.00    +0.014 A 
BRANCH   5  13
ATOM     12  F   UNL     1     -11.005  -0.783 -16.481  0.00  0.00    -0.166 F 
ATOM     13  C   UNL     1      -9.877  -0.074 -15.959  0.00  0.00    +0.417 C 
ATOM     14  F   UNL     1      -8.937  -0.093 -17.034  0.00  0.00    -0.166 F 
ATOM     15  F   UNL     1      -9.334  -1.408 -15.540  0.00  0.00    -0.166 F 
ENDBRANCH   5  13
ENDBRANCH   1   7
BRANCH   3  16
ATOM     16  C   UNL     1     -15.740   3.953 -14.761  0.00  0.00    +0.224 C 
BRANCH  16  17
ATOM     17  C   UNL     1     -16.766   3.858 -15.962  0.00  0.00    +0.282 C 
ATOM     18  N   UNL     1     -16.683   4.788 -16.979  0.00  0.00    -0.288 N 
ATOM     19  H   UNL     1     -15.726   4.863 -17.327  0.00  0.00    +0.301 HD
ATOM     20  H   UNL     1     -17.300   4.495 -17.733  0.00  0.00    +0.301 HD
ATOM     21  N   UNL     1     -17.675   2.928 -15.908  0.00  0.00    -0.136 N 
ATOM     22  H   UNL     1     -17.766   2.271 -15.181  0.00  0.00    +0.348 HD
BRANCH  21  23
ATOM     23  O   UNL     1     -18.510   2.998 -17.037  0.00  0.00    -0.210 OA
ATOM     24  H   UNL     1     -18.368   2.127 -17.453  0.00  0.00    +0.271 HD
ENDBRANCH  21  23
ENDBRANCH  16  17
ENDBRANCH   3  16
TORSDOF 5
ENDMDL
MODEL 6
REMARK VINA RESULT:      -6.4      2.140      2.468
REMARK  Name = min_compound969.pdb
REMARK  5 active torsions:
REMARK  status: ('A' for Active; 'I' for Inactive)
REMARK    1  A    between atoms: _2  and  _5
REMARK    2  A    between atoms: _10  and  _16
REMARK    3  A    between atoms: _12  and  _17
REMARK    4  A    between atoms: _14  and  _17
REMARK    5  A    between atoms: _15  and  _19
REMARK                            x       y       z     vdW  Elec       q    Type
REMARK                         _______ _______ _______ _____ _____    ______ ____
ROOT
ATOM      1  N   UNL     1     -14.175  -2.830  -1.296  0.00  0.00    -0.284 N 
ATOM      2  H   UNL     1     -14.242  -2.842  -0.283  0.00  0.00    +0.155 HD
ATOM      3  C   UNL     1     -13.839  -4.001  -1.937  0.00  0.00    +0.229 C 
ATOM      4  O   UNL     1     -14.147  -4.107  -3.140  0.00  0.00    -0.275 OA
ENDROOT
BRANCH   1   7
ATOM      5  C   UNL     1     -14.785   0.446  -3.317  0.00  0.00    +0.057 A 
ATOM      6  C   UNL     1     -14.138  -0.641  -2.625  0.00  0.00    +0.037 A 
ATOM      7  C   UNL     1     -14.829  -1.703  -1.962  0.00  0.00    +0.052 A 
ATOM      8  C   UNL     1     -16.227  -1.631  -1.971  0.00  0.00    +0.062 A 
ATOM      9 CL   UNL     1     -17.183  -2.851  -1.201  0.00  0.00    -0.082 Cl
ATOM     10  C   UNL     1     -16.892  -0.586  -2.635  0.00  0.00    +0.022 A 
ATOM     11  C   UNL     1     -16.185   0.437  -3.295  0.00  0.00    +0.014 A 
BRANCH   5  13
ATOM     12  F   UNL     1     -14.753   2.571  -3.357  0.00  0.00    -0.166 F 
ATOM     13  C   UNL     1     -13.916   1.533  -3.874  0.00  0.00    +0.417 C 
ATOM     14  F   UNL     1     -12.933   1.349  -2.854  0.00  0.00    -0.166 F 
ATOM     15  F   UNL     1     -13.047   2.621  -4.431  0.00  0.00    -0.166 F 
ENDBRANCH   5  13
ENDBRANCH   1   7
BRANCH   3  16
ATOM     16  C   UNL     1     -13.309  -5.220  -1.242  0.00  0.00    +0.224 C 
BRANCH  16  17
ATOM     17  C   UNL     1     -14.077  -6.340  -2.055  0.00  0.00    +0.282 C 
ATOM     18  N   UNL     1     -15.432  -6.498  -1.846  0.00  0.00    -0.288 N 
ATOM     19  H   UNL     1     -15.919  -5.603  -1.919  0.00  0.00    +0.301 HD
ATOM     20  H   UNL     1     -15.792  -7.142  -2.548  0.00  0.00    +0.301 HD
ATOM     21  N   UNL     1     -13.377  -7.096  -2.851  0.00  0.00    -0.136 N 
ATOM     22  H   UNL     1     -12.406  -7.015  -2.995  0.00  0.00    +0.348 HD
BRANCH  21  23
ATOM     23  O   UNL     1     -14.206  -8.045  -3.475  0.00  0.00    -0.210 OA
ATOM     24  H   UNL     1     -13.922  -7.986  -4.406  0.00  0.00    +0.271 HD
ENDBRANCH  21  23
ENDBRANCH  16  17
ENDBRANCH   3  16
TORSDOF 5
ENDMDL
MODEL 7
REMARK VINA RESULT:      -6.4      2.050      2.556
REMARK  Name = min_compound969.pdb
REMARK  5 active torsions:
REMARK  status: ('A' for Active; 'I' for Inactive)
REMARK    1  A    between atoms: _2  and  _5
REMARK    2  A    between atoms: _10  and  _16
REMARK    3  A    between atoms: _12  and  _17
REMARK    4  A    between atoms: _14  and  _17
REMARK    5  A    between atoms: _15  and  _19
REMARK                            x       y       z     vdW  Elec       q    Type
REMARK                         _______ _______ _______ _____ _____    ______ ____
ROOT
ATOM      1  N   UNL     1     -15.072  -2.286  -4.226  0.00  0.00    -0.284 N 
ATOM      2  H   UNL     1     -14.548  -3.044  -4.651  0.00  0.00    +0.155 HD
ATOM      3  C   UNL     1     -15.609  -2.490  -2.975  0.00  0.00    +0.229 C 
ATOM      4  O   UNL     1     -15.882  -1.482  -2.295  0.00  0.00    -0.275 OA
ENDROOT
BRANCH   1   7
ATOM      5  C   UNL     1     -13.894   1.393  -4.743  0.00  0.00    +0.057 A 
ATOM      6  C   UNL     1     -14.149   0.102  -4.154  0.00  0.00    +0.037 A 
ATOM      7  C   UNL     1     -14.851  -0.960  -4.804  0.00  0.00    +0.052 A 
ATOM      8  C   UNL     1     -15.345  -0.681  -6.084  0.00  0.00    +0.062 A 
ATOM      9 CL   UNL     1     -16.218  -1.878  -6.979  0.00  0.00    -0.082 Cl
ATOM     10  C   UNL     1     -15.118   0.568  -6.690  0.00  0.00    +0.022 A 
ATOM     11  C   UNL     1     -14.407   1.589  -6.031  0.00  0.00    +0.014 A 
BRANCH   5  13
ATOM     12  F   UNL     1     -14.476   3.014  -3.497  0.00  0.00    -0.166 F 
ATOM     13  C   UNL     1     -13.231   2.431  -3.888  0.00  0.00    +0.417 C 
ATOM     14  F   UNL     1     -12.957   1.486  -2.853  0.00  0.00    -0.166 F 
ATOM     15  F   UNL     1     -12.567   3.469  -3.033  0.00  0.00    -0.166 F 
ENDBRANCH   5  13
ENDBRANCH   1   7
BRANCH   3  16
ATOM     16  C   UNL     1     -15.702  -3.830  -2.306  0.00  0.00    +0.224 C 
BRANCH  16  17
ATOM     17  C   UNL     1     -14.177  -4.053  -1.951  0.00  0.00    +0.282 C 
ATOM     18  N   UNL     1     -13.546  -5.185  -2.427  0.00  0.00    -0.288 N 
ATOM     19  H   UNL     1     -13.702  -5.295  -3.430  0.00  0.00    +0.301 HD
ATOM     20  H   UNL     1     -12.548  -5.098  -2.243  0.00  0.00    +0.301 HD
ATOM     21  N   UNL     1     -13.601  -3.176  -1.181  0.00  0.00    -0.136 N 
ATOM     22  H   UNL     1     -14.040  -2.376  -0.812  0.00  0.00    +0.348 HD
BRANCH  21  23
ATOM     23  O   UNL     1     -12.261  -3.536  -0.951  0.00  0.00    -0.210 OA
ATOM     24  H   UNL     1     -11.804  -3.124  -1.708  0.00  0.00    +0.271 HD
ENDBRANCH  21  23
ENDBRANCH  16  17
ENDBRANCH   3  16
TORSDOF 5
ENDMDL
MODEL 8
REMARK VINA RESULT:      -6.2     15.928     17.693
REMARK  Name = min_compound969.pdb
REMARK  5 active torsions:
REMARK  status: ('A' for Active; 'I' for Inactive)
REMARK    1  A    between atoms: _2  and  _5
REMARK    2  A    between atoms: _10  and  _16
REMARK    3  A    between atoms: _12  and  _17
REMARK    4  A    between atoms: _14  and  _17
REMARK    5  A    between atoms: _15  and  _19
REMARK                            x       y       z     vdW  Elec       q    Type
REMARK                         _______ _______ _______ _____ _____    ______ ____
ROOT
ATOM      1  N   UNL     1     -13.942   2.592 -17.910  0.00  0.00    -0.284 N 
ATOM      2  H   UNL     1     -14.823   2.366 -17.459  0.00  0.00    +0.155 HD
ATOM      3  C   UNL     1     -13.924   3.626 -18.818  0.00  0.00    +0.229 C 
ATOM      4  O   UNL     1     -12.826   4.165 -19.055  0.00  0.00    -0.275 OA
ENDROOT
BRANCH   1   7
ATOM      5  C   UNL     1     -10.720   0.542 -17.133  0.00  0.00    +0.057 A 
ATOM      6  C   UNL     1     -11.925   1.021 -17.763  0.00  0.00    +0.037 A 
ATOM      7  C   UNL     1     -12.742   2.075 -17.250  0.00  0.00    +0.052 A 
ATOM      8  C   UNL     1     -12.337   2.632 -16.031  0.00  0.00    +0.062 A 
ATOM      9 CL   UNL     1     -13.241   3.913 -15.297  0.00  0.00    -0.082 Cl
ATOM     10  C   UNL     1     -11.168   2.191 -15.387  0.00  0.00    +0.022 A 
ATOM     11  C   UNL     1     -10.373   1.161 -15.926  0.00  0.00    +0.014 A 
BRANCH   5  13
ATOM     12  F   UNL     1      -8.745  -0.022 -17.683  0.00  0.00    -0.166 F 
ATOM     13  C   UNL     1     -10.032  -0.640 -17.750  0.00  0.00    +0.417 C 
ATOM     14  F   UNL     1     -10.113  -1.391 -16.538  0.00  0.00    -0.166 F 
ATOM     15  F   UNL     1      -9.345  -1.822 -18.366  0.00  0.00    -0.166 F 
ENDBRANCH   5  13
ENDBRANCH   1   7
BRANCH   3  16
ATOM     16  C   UNL     1     -15.154   4.268 -19.388  0.00  0.00    +0.224 C 
BRANCH  16  17
ATOM     17  C   UNL     1     -14.507   5.041 -20.607  0.00  0.00    +0.282 C 
ATOM     18  N   UNL     1     -14.170   4.327 -21.740  0.00  0.00    -0.288 N 
ATOM     19  H   UNL     1     -14.953   3.752 -22.053  0.00  0.00    +0.301 HD
ATOM     20  H   UNL     1     -13.916   4.988 -22.471  0.00  0.00    +0.301 HD
ATOM     21  N   UNL     1     -14.276   6.314 -20.462  0.00  0.00    -0.136 N 
ATOM     22  H   UNL     1     -14.486   6.836 -19.654  0.00  0.00    +0.348 HD
BRANCH  21  23
ATOM     23  O   UNL     1     -13.684   6.837 -21.625  0.00  0.00    -0.210 OA
ATOM     24  H   UNL     1     -14.317   7.532 -21.884  0.00  0.00    +0.271 HD
ENDBRANCH  21  23
ENDBRANCH  16  17
ENDBRANCH   3  16
TORSDOF 5
ENDMDL
MODEL 9
REMARK VINA RESULT:      -6.1     15.350     16.818
REMARK  Name = min_compound969.pdb
REMARK  5 active torsions:
REMARK  status: ('A' for Active; 'I' for Inactive)
REMARK    1  A    between atoms: _2  and  _5
REMARK    2  A    between atoms: _10  and  _16
REMARK    3  A    between atoms: _12  and  _17
REMARK    4  A    between atoms: _14  and  _17
REMARK    5  A    between atoms: _15  and  _19
REMARK                            x       y       z     vdW  Elec       q    Type
REMARK                         _______ _______ _______ _____ _____    ______ ____
ROOT
ATOM      1  N   UNL     1     -14.007   2.464 -17.800  0.00  0.00    -0.284 N 
ATOM      2  H   UNL     1     -14.857   2.270 -17.280  0.00  0.00    +0.155 HD
ATOM      3  C   UNL     1     -14.051   3.430 -18.780  0.00  0.00    +0.229 C 
ATOM      4  O   UNL     1     -12.973   3.951 -19.123  0.00  0.00    -0.275 OA
ENDROOT
BRANCH   1   7
ATOM      5  C   UNL     1     -10.702   0.515 -17.114  0.00  0.00    +0.057 A 
ATOM      6  C   UNL     1     -11.947   0.945 -17.701  0.00  0.00    +0.037 A 
ATOM      7  C   UNL     1     -12.765   1.996 -17.182  0.00  0.00    +0.052 A 
ATOM      8  C   UNL     1     -12.317   2.602 -16.002  0.00  0.00    +0.062 A 
ATOM      9 CL   UNL     1     -13.217   3.885 -15.267  0.00  0.00    -0.082 Cl
ATOM     10  C   UNL     1     -11.109   2.208 -15.401  0.00  0.00    +0.022 A 
ATOM     11  C   UNL     1     -10.315   1.181 -15.945  0.00  0.00    +0.014 A 
BRANCH   5  13
ATOM     12  F   UNL     1      -8.735  -0.035 -17.705  0.00  0.00    -0.166 F 
ATOM     13  C   UNL     1     -10.016  -0.671 -17.725  0.00  0.00    +0.417 C 
ATOM     14  F   UNL     1     -10.055  -1.398 -16.497  0.00  0.00    -0.166 F 
ATOM     15  F   UNL     1      -9.330  -1.856 -18.336  0.00  0.00    -0.166 F 
ENDBRANCH   5  13
ENDBRANCH   1   7
BRANCH   3  16
ATOM     16  C   UNL     1     -15.318   4.029 -19.315  0.00  0.00    +0.224 C 
BRANCH  16  17
ATOM     17  C   UNL     1     -15.638   5.051 -18.150  0.00  0.00    +0.282 C 
ATOM     18  N   UNL     1     -14.768   6.102 -17.935  0.00  0.00    -0.288 N 
ATOM     19  H   UNL     1     -14.573   6.598 -18.806  0.00  0.00    +0.301 HD
ATOM     20  H   UNL     1     -15.195   6.740 -17.266  0.00  0.00    +0.301 HD
ATOM     21  N   UNL     1     -16.687   4.822 -17.415  0.00  0.00    -0.136 N 
ATOM     22  H   UNL     1     -17.305   4.065 -17.537  0.00  0.00    +0.348 HD
BRANCH  21  23
ATOM     23  O   UNL     1     -16.811   5.809 -16.422  0.00  0.00    -0.210 OA
ATOM     24  H   UNL     1     -17.693   6.181 -16.610  0.00  0.00    +0.271 HD
ENDBRANCH  21  23
ENDBRANCH  16  17
ENDBRANCH   3  16
TORSDOF 5
ENDMDL
