MODEL 1
REMARK VINA RESULT:      -6.3      0.000      0.000
REMARK  Name = min_compound940.pdb
REMARK  6 active torsions:
REMARK  status: ('A' for Active; 'I' for Inactive)
REMARK    1  A    between atoms: _3  and  _17
REMARK    2  A    between atoms: _5  and  _16
REMARK    3  A    between atoms: _8  and  _18
REMARK    4  A    between atoms: _10  and  _19
REMARK    5  A    between atoms: _11  and  _12
REMARK    6  A    between atoms: _15  and  _16
REMARK                            x       y       z     vdW  Elec       q    Type
REMARK                         _______ _______ _______ _____ _____    ______ ____
ROOT
ATOM      1  N   UNL     1     -12.839   7.634 -18.075  0.00  0.00    -0.251 NA
ATOM      2  C   UNL     1     -11.899   6.806 -18.450  0.00  0.00    +0.183 C 
ATOM      3  N   UNL     1     -11.770   5.482 -18.239  0.00  0.00    -0.290 N 
ATOM      4  H   UNL     1     -11.015   4.949 -18.576  0.00  0.00    +0.154 HD
ATOM      5  C   UNL     1     -12.786   4.960 -17.515  0.00  0.00    +0.131 A 
ATOM      6  N   UNL     1     -13.005   3.697 -17.036  0.00  0.00    -0.309 N 
ATOM      7  C   UNL     1     -14.164   3.766 -16.301  0.00  0.00    +0.201 A 
ATOM      8  N   UNL     1     -14.695   4.978 -16.290  0.00  0.00    -0.235 NA
ATOM      9  C   UNL     1     -13.843   5.707 -17.073  0.00  0.00    +0.120 A 
ATOM     10  C   UNL     1     -13.885   7.089 -17.376  0.00  0.00    +0.224 C 
ENDROOT
BRANCH   6  11
ATOM     11  C   UNL     1     -12.078   2.597 -17.180  0.00  0.00    +0.144 C 
ATOM     12  C   UNL     1     -10.764   2.552 -16.371  0.00  0.00    +0.174 C 
ATOM     13  C   UNL     1     -10.382   1.047 -16.428  0.00  0.00    +0.173 C 
ATOM     14  C   UNL     1     -11.724   0.370 -16.484  0.00  0.00    -0.016 C 
ATOM     15  C   UNL     1     -12.671   1.243 -16.862  0.00  0.00    +0.004 C 
BRANCH  12  16
ATOM     16  O   UNL     1     -10.896   2.937 -14.989  0.00  0.00    -0.387 OA
ATOM     17  H   UNL     1      -9.976   2.970 -14.654  0.00  0.00    +0.210 HD
ENDBRANCH  12  16
BRANCH  13  18
ATOM     18  O   UNL     1      -9.641   0.703 -15.260  0.00  0.00    -0.385 OA
ATOM     19  H   UNL     1     -10.221   0.099 -14.744  0.00  0.00    +0.210 HD
ENDBRANCH  13  18
BRANCH  14  20
ATOM     20  C   UNL     1     -11.916  -1.082 -16.252  0.00  0.00    +0.189 C 
BRANCH  20  21
ATOM     21  O   UNL     1     -13.303  -1.335 -16.061  0.00  0.00    -0.391 OA
ATOM     22  H   UNL     1     -13.391  -2.303 -16.006  0.00  0.00    +0.210 HD
ENDBRANCH  20  21
ENDBRANCH  14  20
ENDBRANCH   6  11
BRANCH  10  23
ATOM     23  N   UNL     1     -14.779   7.992 -16.746  0.00  0.00    -0.304 NA
ATOM     24  H   UNL     1     -15.457   7.434 -16.249  0.00  0.00    +0.121 HD
ATOM     25  H   UNL     1     -15.184   8.579 -17.466  0.00  0.00    +0.121 HD
ENDBRANCH  10  23
TORSDOF 6
ENDMDL
MODEL 2
REMARK VINA RESULT:      -5.9      1.184      2.201
REMARK  Name = min_compound940.pdb
REMARK  6 active torsions:
REMARK  status: ('A' for Active; 'I' for Inactive)
REMARK    1  A    between atoms: _3  and  _17
REMARK    2  A    between atoms: _5  and  _16
REMARK    3  A    between atoms: _8  and  _18
REMARK    4  A    between atoms: _10  and  _19
REMARK    5  A    between atoms: _11  and  _12
REMARK    6  A    between atoms: _15  and  _16
REMARK                            x       y       z     vdW  Elec       q    Type
REMARK                         _______ _______ _______ _____ _____    ______ ____
ROOT
ATOM      1  N   UNL     1     -15.463   5.176 -15.033  0.00  0.00    -0.251 NA
ATOM      2  C   UNL     1     -14.747   4.137 -14.688  0.00  0.00    +0.183 C 
ATOM      3  N   UNL     1     -13.736   3.525 -15.333  0.00  0.00    -0.290 N 
ATOM      4  H   UNL     1     -13.258   2.743 -14.975  0.00  0.00    +0.154 HD
ATOM      5  C   UNL     1     -13.445   4.095 -16.524  0.00  0.00    +0.131 A 
ATOM      6  N   UNL     1     -12.549   3.752 -17.500  0.00  0.00    -0.309 N 
ATOM      7  C   UNL     1     -12.743   4.647 -18.524  0.00  0.00    +0.201 A 
ATOM      8  N   UNL     1     -13.690   5.534 -18.260  0.00  0.00    -0.235 NA
ATOM      9  C   UNL     1     -14.101   5.197 -17.000  0.00  0.00    +0.120 A 
ATOM     10  C   UNL     1     -15.134   5.773 -16.223  0.00  0.00    +0.224 C 
ENDROOT
BRANCH   6  11
ATOM     11  C   UNL     1     -11.708   2.577 -17.460  0.00  0.00    +0.144 C 
ATOM     12  C   UNL     1     -10.472   2.513 -16.537  0.00  0.00    +0.174 C 
ATOM     13  C   UNL     1     -10.214   0.985 -16.422  0.00  0.00    +0.173 C 
ATOM     14  C   UNL     1     -11.598   0.408 -16.534  0.00  0.00    -0.016 C 
ATOM     15  C   UNL     1     -12.435   1.309 -17.074  0.00  0.00    +0.004 C 
BRANCH  12  16
ATOM     16  O   UNL     1     -10.684   3.041 -15.213  0.00  0.00    -0.387 OA
ATOM     17  H   UNL     1      -9.942   3.666 -15.076  0.00  0.00    +0.210 HD
ENDBRANCH  12  16
BRANCH  13  18
ATOM     18  O   UNL     1      -9.601   0.703 -15.165  0.00  0.00    -0.385 OA
ATOM     19  H   UNL     1     -10.206   0.078 -14.708  0.00  0.00    +0.210 HD
ENDBRANCH  13  18
BRANCH  14  20
ATOM     20  C   UNL     1     -11.928  -0.995 -16.189  0.00  0.00    +0.189 C 
BRANCH  20  21
ATOM     21  O   UNL     1     -13.344  -1.132 -16.133  0.00  0.00    -0.391 OA
ATOM     22  H   UNL     1     -13.682  -0.719 -16.947  0.00  0.00    +0.210 HD
ENDBRANCH  20  21
ENDBRANCH  14  20
ENDBRANCH   6  11
BRANCH  10  23
ATOM     23  N   UNL     1     -16.044   6.732 -16.736  0.00  0.00    -0.304 NA
ATOM     24  H   UNL     1     -16.131   6.553 -17.725  0.00  0.00    +0.121 HD
ATOM     25  H   UNL     1     -15.680   7.652 -16.519  0.00  0.00    +0.121 HD
ENDBRANCH  10  23
TORSDOF 6
ENDMDL
MODEL 3
REMARK VINA RESULT:      -5.9      1.525      2.033
REMARK  Name = min_compound940.pdb
REMARK  6 active torsions:
REMARK  status: ('A' for Active; 'I' for Inactive)
REMARK    1  A    between atoms: _3  and  _17
REMARK    2  A    between atoms: _5  and  _16
REMARK    3  A    between atoms: _8  and  _18
REMARK    4  A    between atoms: _10  and  _19
REMARK    5  A    between atoms: _11  and  _12
REMARK    6  A    between atoms: _15  and  _16
REMARK                            x       y       z     vdW  Elec       q    Type
REMARK                         _______ _______ _______ _____ _____    ______ ____
ROOT
ATOM      1  N   UNL     1     -12.626   7.470 -18.088  0.00  0.00    -0.251 NA
ATOM      2  C   UNL     1     -11.917   6.372 -18.135  0.00  0.00    +0.183 C 
ATOM      3  N   UNL     1     -12.220   5.122 -17.734  0.00  0.00    -0.290 N 
ATOM      4  H   UNL     1     -11.604   4.359 -17.823  0.00  0.00    +0.154 HD
ATOM      5  C   UNL     1     -13.456   5.024 -17.196  0.00  0.00    +0.131 A 
ATOM      6  N   UNL     1     -14.115   3.971 -16.621  0.00  0.00    -0.309 N 
ATOM      7  C   UNL     1     -15.316   4.471 -16.179  0.00  0.00    +0.201 A 
ATOM      8  N   UNL     1     -15.465   5.760 -16.442  0.00  0.00    -0.235 NA
ATOM      9  C   UNL     1     -14.311   6.087 -17.100  0.00  0.00    +0.120 A 
ATOM     10  C   UNL     1     -13.894   7.352 -17.578  0.00  0.00    +0.224 C 
ENDROOT
BRANCH   6  11
ATOM     11  C   UNL     1     -13.539   2.662 -16.414  0.00  0.00    +0.144 C 
ATOM     12  C   UNL     1     -13.305   1.698 -17.598  0.00  0.00    +0.174 C 
ATOM     13  C   UNL     1     -12.245   0.714 -17.030  0.00  0.00    +0.173 C 
ATOM     14  C   UNL     1     -11.466   1.582 -16.082  0.00  0.00    -0.016 C 
ATOM     15  C   UNL     1     -12.170   2.683 -15.773  0.00  0.00    +0.004 C 
BRANCH  12  16
ATOM     16  O   UNL     1     -12.764   2.319 -18.780  0.00  0.00    -0.387 OA
ATOM     17  H   UNL     1     -11.810   2.429 -18.586  0.00  0.00    +0.210 HD
ENDBRANCH  12  16
BRANCH  13  18
ATOM     18  O   UNL     1     -11.446   0.212 -18.099  0.00  0.00    -0.385 OA
ATOM     19  H   UNL     1     -11.279   0.980 -18.691  0.00  0.00    +0.210 HD
ENDBRANCH  13  18
BRANCH  14  20
ATOM     20  C   UNL     1     -10.157   1.191 -15.506  0.00  0.00    +0.189 C 
BRANCH  20  21
ATOM     21  O   UNL     1     -10.040  -0.227 -15.556  0.00  0.00    -0.391 OA
ATOM     22  H   UNL     1      -9.215  -0.408 -16.040  0.00  0.00    +0.210 HD
ENDBRANCH  20  21
ENDBRANCH  14  20
ENDBRANCH   6  11
BRANCH  10  23
ATOM     23  N   UNL     1     -14.583   8.556 -17.283  0.00  0.00    -0.304 NA
ATOM     24  H   UNL     1     -15.133   8.383 -16.455  0.00  0.00    +0.121 HD
ATOM     25  H   UNL     1     -15.138   8.802 -18.095  0.00  0.00    +0.121 HD
ENDBRANCH  10  23
TORSDOF 6
ENDMDL
MODEL 4
REMARK VINA RESULT:      -5.8      9.390     10.398
REMARK  Name = min_compound940.pdb
REMARK  6 active torsions:
REMARK  status: ('A' for Active; 'I' for Inactive)
REMARK    1  A    between atoms: _3  and  _17
REMARK    2  A    between atoms: _5  and  _16
REMARK    3  A    between atoms: _8  and  _18
REMARK    4  A    between atoms: _10  and  _19
REMARK    5  A    between atoms: _11  and  _12
REMARK    6  A    between atoms: _15  and  _16
REMARK                            x       y       z     vdW  Elec       q    Type
REMARK                         _______ _______ _______ _____ _____    ______ ____
ROOT
ATOM      1  N   UNL     1     -16.201   5.124 -10.260  0.00  0.00    -0.251 NA
ATOM      2  C   UNL     1     -15.937   3.857 -10.070  0.00  0.00    +0.183 C 
ATOM      3  N   UNL     1     -16.207   3.060  -9.019  0.00  0.00    -0.290 N 
ATOM      4  H   UNL     1     -15.964   2.107  -8.983  0.00  0.00    +0.154 HD
ATOM      5  C   UNL     1     -16.847   3.704  -8.017  0.00  0.00    +0.131 A 
ATOM      6  N   UNL     1     -17.239   3.286  -6.774  0.00  0.00    -0.309 N 
ATOM      7  C   UNL     1     -17.775   4.390  -6.155  0.00  0.00    +0.201 A 
ATOM      8  N   UNL     1     -17.756   5.470  -6.921  0.00  0.00    -0.235 NA
ATOM      9  C   UNL     1     -17.201   5.023  -8.088  0.00  0.00    +0.120 A 
ATOM     10  C   UNL     1     -16.886   5.759  -9.256  0.00  0.00    +0.224 C 
ENDROOT
BRANCH   6  11
ATOM     11  C   UNL     1     -16.970   1.975  -6.230  0.00  0.00    +0.144 C 
ATOM     12  C   UNL     1     -17.691   0.723  -6.776  0.00  0.00    +0.174 C 
ATOM     13  C   UNL     1     -16.760  -0.432  -6.316  0.00  0.00    +0.173 C 
ATOM     14  C   UNL     1     -15.402   0.213  -6.333  0.00  0.00    -0.016 C 
ATOM     15  C   UNL     1     -15.522   1.551  -6.327  0.00  0.00    +0.004 C 
BRANCH  12  16
ATOM     16  O   UNL     1     -17.804   0.674  -8.212  0.00  0.00    -0.387 OA
ATOM     17  H   UNL     1     -16.917   0.931  -8.537  0.00  0.00    +0.210 HD
ENDBRANCH  12  16
BRANCH  13  18
ATOM     18  O   UNL     1     -16.864  -1.518  -7.235  0.00  0.00    -0.385 OA
ATOM     19  H   UNL     1     -17.596  -2.082  -6.900  0.00  0.00    +0.210 HD
ENDBRANCH  13  18
BRANCH  14  20
ATOM     20  C   UNL     1     -14.134  -0.551  -6.257  0.00  0.00    +0.189 C 
BRANCH  20  21
ATOM     21  O   UNL     1     -14.440  -1.932  -6.104  0.00  0.00    -0.391 OA
ATOM     22  H   UNL     1     -13.710  -2.309  -5.581  0.00  0.00    +0.210 HD
ENDBRANCH  20  21
ENDBRANCH  14  20
ENDBRANCH   6  11
BRANCH  10  23
ATOM     23  N   UNL     1     -16.962   7.173  -9.323  0.00  0.00    -0.304 NA
ATOM     24  H   UNL     1     -17.876   7.434  -8.984  0.00  0.00    +0.121 HD
ATOM     25  H   UNL     1     -16.790   7.448 -10.283  0.00  0.00    +0.121 HD
ENDBRANCH  10  23
TORSDOF 6
ENDMDL
MODEL 5
REMARK VINA RESULT:      -5.7      1.603      2.774
REMARK  Name = min_compound940.pdb
REMARK  6 active torsions:
REMARK  status: ('A' for Active; 'I' for Inactive)
REMARK    1  A    between atoms: _3  and  _17
REMARK    2  A    between atoms: _5  and  _16
REMARK    3  A    between atoms: _8  and  _18
REMARK    4  A    between atoms: _10  and  _19
REMARK    5  A    between atoms: _11  and  _12
REMARK    6  A    between atoms: _15  and  _16
REMARK                            x       y       z     vdW  Elec       q    Type
REMARK                         _______ _______ _______ _____ _____    ______ ____
ROOT
ATOM      1  N   UNL     1     -16.064   7.163 -16.330  0.00  0.00    -0.251 NA
ATOM      2  C   UNL     1     -16.165   5.958 -15.830  0.00  0.00    +0.183 C 
ATOM      3  N   UNL     1     -15.270   4.953 -15.796  0.00  0.00    -0.290 N 
ATOM      4  H   UNL     1     -15.451   4.078 -15.384  0.00  0.00    +0.154 HD
ATOM      5  C   UNL     1     -14.095   5.270 -16.387  0.00  0.00    +0.131 A 
ATOM      6  N   UNL     1     -12.967   4.530 -16.619  0.00  0.00    -0.309 N 
ATOM      7  C   UNL     1     -12.118   5.346 -17.326  0.00  0.00    +0.201 A 
ATOM      8  N   UNL     1     -12.625   6.549 -17.548  0.00  0.00    -0.235 NA
ATOM      9  C   UNL     1     -13.846   6.498 -16.934  0.00  0.00    +0.120 A 
ATOM     10  C   UNL     1     -14.856   7.489 -16.890  0.00  0.00    +0.224 C 
ENDROOT
BRANCH   6  11
ATOM     11  C   UNL     1     -12.829   3.128 -16.296  0.00  0.00    +0.144 C 
ATOM     12  C   UNL     1     -13.131   2.035 -17.344  0.00  0.00    +0.174 C 
ATOM     13  C   UNL     1     -12.376   0.802 -16.776  0.00  0.00    +0.173 C 
ATOM     14  C   UNL     1     -11.205   1.430 -16.073  0.00  0.00    -0.016 C 
ATOM     15  C   UNL     1     -11.443   2.731 -15.843  0.00  0.00    +0.004 C 
BRANCH  12  16
ATOM     16  O   UNL     1     -12.624   2.313 -18.665  0.00  0.00    -0.387 OA
ATOM     17  H   UNL     1     -12.932   3.222 -18.860  0.00  0.00    +0.210 HD
ENDBRANCH  12  16
BRANCH  13  18
ATOM     18  O   UNL     1     -11.980  -0.046 -17.852  0.00  0.00    -0.385 OA
ATOM     19  H   UNL     1     -11.174   0.366 -18.235  0.00  0.00    +0.210 HD
ENDBRANCH  13  18
BRANCH  14  20
ATOM     20  C   UNL     1     -10.021   0.664 -15.616  0.00  0.00    +0.189 C 
BRANCH  20  21
ATOM     21  O   UNL     1     -10.343  -0.723 -15.621  0.00  0.00    -0.391 OA
ATOM     22  H   UNL     1     -10.151  -1.043 -14.722  0.00  0.00    +0.210 HD
ENDBRANCH  20  21
ENDBRANCH  14  20
ENDBRANCH   6  11
BRANCH  10  23
ATOM     23  N   UNL     1     -14.802   8.682 -17.655  0.00  0.00    -0.304 NA
ATOM     24  H   UNL     1     -13.936   9.143 -17.418  0.00  0.00    +0.121 HD
ATOM     25  H   UNL     1     -15.627   9.228 -17.435  0.00  0.00    +0.121 HD
ENDBRANCH  10  23
TORSDOF 6
ENDMDL
MODEL 6
REMARK VINA RESULT:      -5.7     14.345     16.156
REMARK  Name = min_compound940.pdb
REMARK  6 active torsions:
REMARK  status: ('A' for Active; 'I' for Inactive)
REMARK    1  A    between atoms: _3  and  _17
REMARK    2  A    between atoms: _5  and  _16
REMARK    3  A    between atoms: _8  and  _18
REMARK    4  A    between atoms: _10  and  _19
REMARK    5  A    between atoms: _11  and  _12
REMARK    6  A    between atoms: _15  and  _16
REMARK                            x       y       z     vdW  Elec       q    Type
REMARK                         _______ _______ _______ _____ _____    ______ ____
ROOT
ATOM      1  N   UNL     1     -14.728  -6.288  -1.448  0.00  0.00    -0.251 NA
ATOM      2  C   UNL     1     -13.712  -5.589  -1.883  0.00  0.00    +0.183 C 
ATOM      3  N   UNL     1     -13.667  -4.341  -2.388  0.00  0.00    -0.290 N 
ATOM      4  H   UNL     1     -12.835  -3.905  -2.683  0.00  0.00    +0.154 HD
ATOM      5  C   UNL     1     -14.881  -3.750  -2.447  0.00  0.00    +0.131 A 
ATOM      6  N   UNL     1     -15.276  -2.536  -2.941  0.00  0.00    -0.309 N 
ATOM      7  C   UNL     1     -16.643  -2.499  -2.806  0.00  0.00    +0.201 A 
ATOM      8  N   UNL     1     -17.136  -3.598  -2.256  0.00  0.00    -0.235 NA
ATOM      9  C   UNL     1     -16.026  -4.357  -2.011  0.00  0.00    +0.120 A 
ATOM     10  C   UNL     1     -15.950  -5.665  -1.474  0.00  0.00    +0.224 C 
ENDROOT
BRANCH   6  11
ATOM     11  C   UNL     1     -14.397  -1.598  -3.601  0.00  0.00    +0.144 C 
ATOM     12  C   UNL     1     -14.585  -1.244  -5.093  0.00  0.00    +0.174 C 
ATOM     13  C   UNL     1     -13.828   0.106  -5.219  0.00  0.00    +0.173 C 
ATOM     14  C   UNL     1     -14.017   0.718  -3.859  0.00  0.00    -0.016 C 
ATOM     15  C   UNL     1     -14.373  -0.224  -2.971  0.00  0.00    +0.004 C 
BRANCH  12  16
ATOM     16  O   UNL     1     -15.954  -1.039  -5.494  0.00  0.00    -0.387 OA
ATOM     17  H   UNL     1     -16.464  -1.689  -4.967  0.00  0.00    +0.210 HD
ENDBRANCH  12  16
BRANCH  13  18
ATOM     18  O   UNL     1     -14.419   0.883  -6.259  0.00  0.00    -0.385 OA
ATOM     19  H   UNL     1     -14.924   0.248  -6.814  0.00  0.00    +0.210 HD
ENDBRANCH  13  18
BRANCH  14  20
ATOM     20  C   UNL     1     -13.736   2.142  -3.558  0.00  0.00    +0.189 C 
BRANCH  20  21
ATOM     21  O   UNL     1     -14.835   2.930  -4.003  0.00  0.00    -0.391 OA
ATOM     22  H   UNL     1     -15.031   3.546  -3.275  0.00  0.00    +0.210 HD
ENDBRANCH  20  21
ENDBRANCH  14  20
ENDBRANCH   6  11
BRANCH  10  23
ATOM     23  N   UNL     1     -17.091  -6.477  -1.251  0.00  0.00    -0.304 NA
ATOM     24  H   UNL     1     -17.094  -7.183  -1.972  0.00  0.00    +0.121 HD
ATOM     25  H   UNL     1     -17.906  -5.875  -1.266  0.00  0.00    +0.121 HD
ENDBRANCH  10  23
TORSDOF 6
ENDMDL
MODEL 7
REMARK VINA RESULT:      -5.7      2.937      3.493
REMARK  Name = min_compound940.pdb
REMARK  6 active torsions:
REMARK  status: ('A' for Active; 'I' for Inactive)
REMARK    1  A    between atoms: _3  and  _17
REMARK    2  A    between atoms: _5  and  _16
REMARK    3  A    between atoms: _8  and  _18
REMARK    4  A    between atoms: _10  and  _19
REMARK    5  A    between atoms: _11  and  _12
REMARK    6  A    between atoms: _15  and  _16
REMARK                            x       y       z     vdW  Elec       q    Type
REMARK                         _______ _______ _______ _____ _____    ______ ____
ROOT
ATOM      1  N   UNL     1     -15.119   2.578 -21.961  0.00  0.00    -0.251 NA
ATOM      2  C   UNL     1     -14.094   1.789 -21.769  0.00  0.00    +0.183 C 
ATOM      3  N   UNL     1     -13.314   1.624 -20.683  0.00  0.00    -0.290 N 
ATOM      4  H   UNL     1     -12.562   0.990 -20.645  0.00  0.00    +0.154 HD
ATOM      5  C   UNL     1     -13.669   2.421 -19.650  0.00  0.00    +0.131 A 
ATOM      6  N   UNL     1     -13.112   2.608 -18.414  0.00  0.00    -0.309 N 
ATOM      7  C   UNL     1     -13.850   3.598 -17.811  0.00  0.00    +0.201 A 
ATOM      8  N   UNL     1     -14.836   4.042 -18.575  0.00  0.00    -0.235 NA
ATOM      9  C   UNL     1     -14.731   3.282 -19.706  0.00  0.00    +0.120 A 
ATOM     10  C   UNL     1     -15.497   3.353 -20.894  0.00  0.00    +0.224 C 
ENDROOT
BRANCH   6  11
ATOM     11  C   UNL     1     -11.897   1.970 -17.962  0.00  0.00    +0.144 C 
ATOM     12  C   UNL     1     -11.069   2.565 -16.802  0.00  0.00    +0.174 C 
ATOM     13  C   UNL     1     -10.223   1.350 -16.331  0.00  0.00    +0.173 C 
ATOM     14  C   UNL     1     -11.130   0.186 -16.618  0.00  0.00    -0.016 C 
ATOM     15  C   UNL     1     -12.084   0.545 -17.493  0.00  0.00    +0.004 C 
BRANCH  12  16
ATOM     16  O   UNL     1     -11.850   3.037 -15.687  0.00  0.00    -0.387 OA
ATOM     17  H   UNL     1     -11.198   3.172 -14.969  0.00  0.00    +0.210 HD
ENDBRANCH  12  16
BRANCH  13  18
ATOM     18  O   UNL     1      -9.929   1.489 -14.942  0.00  0.00    -0.385 OA
ATOM     19  H   UNL     1     -10.799   1.477 -14.483  0.00  0.00    +0.210 HD
ENDBRANCH  13  18
BRANCH  14  20
ATOM     20  C   UNL     1     -10.907  -1.176 -16.077  0.00  0.00    +0.189 C 
BRANCH  20  21
ATOM     21  O   UNL     1      -9.524  -1.327 -15.776  0.00  0.00    -0.391 OA
ATOM     22  H   UNL     1      -9.386  -2.281 -15.637  0.00  0.00    +0.210 HD
ENDBRANCH  20  21
ENDBRANCH  14  20
ENDBRANCH   6  11
BRANCH  10  23
ATOM     23  N   UNL     1     -16.432   4.389 -21.151  0.00  0.00    -0.304 NA
ATOM     24  H   UNL     1     -17.116   4.013 -21.790  0.00  0.00    +0.121 HD
ATOM     25  H   UNL     1     -15.921   5.182 -21.521  0.00  0.00    +0.121 HD
ENDBRANCH  10  23
TORSDOF 6
ENDMDL
MODEL 8
REMARK VINA RESULT:      -5.6      3.170      5.809
REMARK  Name = min_compound940.pdb
REMARK  6 active torsions:
REMARK  status: ('A' for Active; 'I' for Inactive)
REMARK    1  A    between atoms: _3  and  _17
REMARK    2  A    between atoms: _5  and  _16
REMARK    3  A    between atoms: _8  and  _18
REMARK    4  A    between atoms: _10  and  _19
REMARK    5  A    between atoms: _11  and  _12
REMARK    6  A    between atoms: _15  and  _16
REMARK                            x       y       z     vdW  Elec       q    Type
REMARK                         _______ _______ _______ _____ _____    ______ ____
ROOT
ATOM      1  N   UNL     1     -11.195  -0.476 -16.945  0.00  0.00    -0.251 NA
ATOM      2  C   UNL     1     -12.398  -0.103 -16.592  0.00  0.00    +0.183 C 
ATOM      3  N   UNL     1     -12.927   1.130 -16.475  0.00  0.00    -0.290 N 
ATOM      4  H   UNL     1     -13.858   1.298 -16.204  0.00  0.00    +0.154 HD
ATOM      5  C   UNL     1     -12.048   2.114 -16.769  0.00  0.00    +0.131 A 
ATOM      6  N   UNL     1     -12.159   3.477 -16.716  0.00  0.00    -0.309 N 
ATOM      7  C   UNL     1     -10.922   3.972 -17.053  0.00  0.00    +0.201 A 
ATOM      8  N   UNL     1     -10.043   3.019 -17.322  0.00  0.00    -0.235 NA
ATOM      9  C   UNL     1     -10.763   1.867 -17.169  0.00  0.00    +0.120 A 
ATOM     10  C   UNL     1     -10.322   0.527 -17.280  0.00  0.00    +0.224 C 
ENDROOT
BRANCH   6  11
ATOM     11  C   UNL     1     -13.327   4.183 -16.241  0.00  0.00    +0.144 C 
ATOM     12  C   UNL     1     -14.620   4.243 -17.084  0.00  0.00    +0.174 C 
ATOM     13  C   UNL     1     -15.699   4.601 -16.025  0.00  0.00    +0.173 C 
ATOM     14  C   UNL     1     -15.166   3.948 -14.779  0.00  0.00    -0.016 C 
ATOM     15  C   UNL     1     -13.857   3.681 -14.917  0.00  0.00    +0.004 C 
BRANCH  12  16
ATOM     16  O   UNL     1     -14.988   2.996 -17.707  0.00  0.00    -0.387 OA
ATOM     17  H   UNL     1     -15.373   3.257 -18.569  0.00  0.00    +0.210 HD
ENDBRANCH  12  16
BRANCH  13  18
ATOM     18  O   UNL     1     -16.956   4.064 -16.432  0.00  0.00    -0.385 OA
ATOM     19  H   UNL     1     -16.985   3.149 -16.073  0.00  0.00    +0.210 HD
ENDBRANCH  13  18
BRANCH  14  20
ATOM     20  C   UNL     1     -15.975   3.746 -13.554  0.00  0.00    +0.189 C 
BRANCH  20  21
ATOM     21  O   UNL     1     -16.787   2.589 -13.727  0.00  0.00    -0.391 OA
ATOM     22  H   UNL     1     -16.748   2.378 -14.676  0.00  0.00    +0.210 HD
ENDBRANCH  20  21
ENDBRANCH  14  20
ENDBRANCH   6  11
BRANCH  10  23
ATOM     23  N   UNL     1      -8.956   0.172 -17.419  0.00  0.00    -0.304 NA
ATOM     24  H   UNL     1      -8.496   0.947 -17.872  0.00  0.00    +0.121 HD
ATOM     25  H   UNL     1      -8.913  -0.692 -17.948  0.00  0.00    +0.121 HD
ENDBRANCH  10  23
TORSDOF 6
ENDMDL
MODEL 9
REMARK VINA RESULT:      -5.5      3.132      6.374
REMARK  Name = min_compound940.pdb
REMARK  6 active torsions:
REMARK  status: ('A' for Active; 'I' for Inactive)
REMARK    1  A    between atoms: _3  and  _17
REMARK    2  A    between atoms: _5  and  _16
REMARK    3  A    between atoms: _8  and  _18
REMARK    4  A    between atoms: _10  and  _19
REMARK    5  A    between atoms: _11  and  _12
REMARK    6  A    between atoms: _15  and  _16
REMARK                            x       y       z     vdW  Elec       q    Type
REMARK                         _______ _______ _______ _____ _____    ______ ____
ROOT
ATOM      1  N   UNL     1     -11.546   0.090 -16.419  0.00  0.00    -0.251 NA
ATOM      2  C   UNL     1     -12.615   0.487 -17.060  0.00  0.00    +0.183 C 
ATOM      3  N   UNL     1     -13.057   1.730 -17.329  0.00  0.00    -0.290 N 
ATOM      4  H   UNL     1     -13.883   1.916 -17.831  0.00  0.00    +0.154 HD
ATOM      5  C   UNL     1     -12.248   2.697 -16.841  0.00  0.00    +0.131 A 
ATOM      6  N   UNL     1     -12.361   4.061 -16.840  0.00  0.00    -0.309 N 
ATOM      7  C   UNL     1     -11.280   4.530 -16.133  0.00  0.00    +0.201 A 
ATOM      8  N   UNL     1     -10.491   3.562 -15.696  0.00  0.00    -0.235 NA
ATOM      9  C   UNL     1     -11.089   2.426 -16.167  0.00  0.00    +0.120 A 
ATOM     10  C   UNL     1     -10.710   1.077 -15.962  0.00  0.00    +0.224 C 
ENDROOT
BRANCH   6  11
ATOM     11  C   UNL     1     -13.497   4.786 -17.360  0.00  0.00    +0.144 C 
ATOM     12  C   UNL     1     -14.883   4.687 -16.686  0.00  0.00    +0.174 C 
ATOM     13  C   UNL     1     -15.606   5.959 -17.208  0.00  0.00    +0.173 C 
ATOM     14  C   UNL     1     -14.475   6.935 -17.375  0.00  0.00    -0.016 C 
ATOM     15  C   UNL     1     -13.301   6.284 -17.419  0.00  0.00    +0.004 C 
BRANCH  12  16
ATOM     16  O   UNL     1     -14.854   4.736 -15.246  0.00  0.00    -0.387 OA
ATOM     17  H   UNL     1     -14.409   5.584 -15.038  0.00  0.00    +0.210 HD
ENDBRANCH  12  16
BRANCH  13  18
ATOM     18  O   UNL     1     -16.564   6.388 -16.242  0.00  0.00    -0.385 OA
ATOM     19  H   UNL     1     -16.049   6.596 -15.430  0.00  0.00    +0.210 HD
ENDBRANCH  13  18
BRANCH  14  20
ATOM     20  C   UNL     1     -14.675   8.391 -17.570  0.00  0.00    +0.189 C 
BRANCH  20  21
ATOM     21  O   UNL     1     -15.049   8.972 -16.325  0.00  0.00    -0.391 OA
ATOM     22  H   UNL     1     -14.254   8.935 -15.765  0.00  0.00    +0.210 HD
ENDBRANCH  20  21
ENDBRANCH  14  20
ENDBRANCH   6  11
BRANCH  10  23
ATOM     23  N   UNL     1      -9.691   0.689 -15.057  0.00  0.00    -0.304 NA
ATOM     24  H   UNL     1      -9.831  -0.291 -14.861  0.00  0.00    +0.121 HD
ATOM     25  H   UNL     1      -9.761   1.282 -14.239  0.00  0.00    +0.121 HD
ENDBRANCH  10  23
TORSDOF 6
ENDMDL
