MODEL 1
REMARK VINA RESULT:      -7.2      0.000      0.000
REMARK  Name = min_compound932.pdb
REMARK  7 active torsions:
REMARK  status: ('A' for Active; 'I' for Inactive)
REMARK    1  A    between atoms: _3  and  _5
REMARK    2  A    between atoms: _6  and  _11
REMARK    3  A    between atoms: _7  and  _15
REMARK    4  A    between atoms: _11  and  _12
REMARK    5  A    between atoms: _11  and  _13
REMARK    6  A    between atoms: _11  and  _14
REMARK    7  A    between atoms: _16  and  _17
REMARK                            x       y       z     vdW  Elec       q    Type
REMARK                         _______ _______ _______ _____ _____    ______ ____
ROOT
ATOM      1  C   UNL     1     -11.883   0.710 -16.825  0.00  0.00    +0.068 A 
ATOM      2  C   UNL     1     -11.377   1.721 -17.649  0.00  0.00    +0.068 A 
ATOM      3  C   UNL     1     -12.319   2.733 -17.630  0.00  0.00    +0.125 A 
ATOM      4  N   UNL     1     -13.302   2.291 -16.751  0.00  0.00    -0.245 N 
ATOM      5  N   UNL     1     -13.043   1.049 -16.272  0.00  0.00    -0.174 NA
ENDROOT
BRANCH   3   6
ATOM      6  N   UNL     1     -12.334   3.940 -18.325  0.00  0.00    -0.254 N 
ATOM      7  H   UNL     1     -12.568   3.945 -19.303  0.00  0.00    +0.158 HD
ATOM      8  C   UNL     1     -11.769   5.091 -17.829  0.00  0.00    +0.309 C 
ATOM      9  N   UNL     1     -11.813   6.207 -18.618  0.00  0.00    -0.269 N 
ATOM     10  H   UNL     1     -11.157   6.896 -18.273  0.00  0.00    +0.156 HD
ATOM     11  O   UNL     1     -11.150   5.194 -16.771  0.00  0.00    -0.252 OA
BRANCH   9  12
ATOM     12  C   UNL     1     -12.586   6.592 -19.722  0.00  0.00    +0.035 A 
ATOM     13  C   UNL     1     -11.896   6.876 -20.908  0.00  0.00    +0.023 A 
ATOM     14  C   UNL     1     -12.581   7.268 -22.058  0.00  0.00    +0.002 A 
ATOM     15  C   UNL     1     -13.967   7.398 -22.029  0.00  0.00    +0.000 A 
ATOM     16  C   UNL     1     -14.659   7.159 -20.844  0.00  0.00    +0.002 A 
ATOM     17  C   UNL     1     -13.968   6.773 -19.690  0.00  0.00    +0.023 A 
ENDBRANCH   9  12
ENDBRANCH   3   6
BRANCH   4  18
ATOM     18  C   UNL     1     -14.547   2.951 -16.305  0.00  0.00    +0.057 C 
ATOM     19  C   UNL     1     -15.342   3.451 -17.524  0.00  0.00    +0.036 C 
ATOM     20  C   UNL     1     -14.247   4.111 -15.339  0.00  0.00    +0.036 C 
ATOM     21  C   UNL     1     -15.469   1.971 -15.526  0.00  0.00    +0.036 C 
ENDBRANCH   4  18
BRANCH   1  24
ATOM     22  C   UNL     1      -9.930  -0.657 -15.764  0.00  0.00    +0.010 C 
ATOM     23  C   UNL     1      -9.823  -0.846 -17.238  0.00  0.00    +0.010 C 
ATOM     24  C   UNL     1     -11.185  -0.625 -16.613  0.00  0.00    +0.040 C 
ENDBRANCH   1  24
TORSDOF 4
ENDMDL
MODEL 2
REMARK VINA RESULT:      -6.7      1.796      2.159
REMARK  Name = min_compound932.pdb
REMARK  7 active torsions:
REMARK  status: ('A' for Active; 'I' for Inactive)
REMARK    1  A    between atoms: _3  and  _5
REMARK    2  A    between atoms: _6  and  _11
REMARK    3  A    between atoms: _7  and  _15
REMARK    4  A    between atoms: _11  and  _12
REMARK    5  A    between atoms: _11  and  _13
REMARK    6  A    between atoms: _11  and  _14
REMARK    7  A    between atoms: _16  and  _17
REMARK                            x       y       z     vdW  Elec       q    Type
REMARK                         _______ _______ _______ _____ _____    ______ ____
ROOT
ATOM      1  C   UNL     1     -12.057   0.841 -16.948  0.00  0.00    +0.068 A 
ATOM      2  C   UNL     1     -11.741   1.482 -18.152  0.00  0.00    +0.068 A 
ATOM      3  C   UNL     1     -12.531   2.615 -18.197  0.00  0.00    +0.125 A 
ATOM      4  N   UNL     1     -13.228   2.615 -16.993  0.00  0.00    -0.245 N 
ATOM      5  N   UNL     1     -12.950   1.522 -16.239  0.00  0.00    -0.174 NA
ENDROOT
BRANCH   3   6
ATOM      6  N   UNL     1     -12.649   3.571 -19.203  0.00  0.00    -0.254 N 
ATOM      7  H   UNL     1     -12.207   4.467 -19.087  0.00  0.00    +0.158 HD
ATOM      8  C   UNL     1     -13.570   3.474 -20.218  0.00  0.00    +0.309 C 
ATOM      9  N   UNL     1     -13.617   4.493 -21.128  0.00  0.00    -0.269 N 
ATOM     10  H   UNL     1     -14.481   4.442 -21.655  0.00  0.00    +0.156 HD
ATOM     11  O   UNL     1     -14.419   2.592 -20.341  0.00  0.00    -0.252 OA
BRANCH   9  12
ATOM     12  C   UNL     1     -12.730   5.513 -21.499  0.00  0.00    +0.035 A 
ATOM     13  C   UNL     1     -12.291   5.515 -22.830  0.00  0.00    +0.023 A 
ATOM     14  C   UNL     1     -11.406   6.491 -23.290  0.00  0.00    +0.002 A 
ATOM     15  C   UNL     1     -10.935   7.466 -22.416  0.00  0.00    +0.000 A 
ATOM     16  C   UNL     1     -11.331   7.448 -21.081  0.00  0.00    +0.002 A 
ATOM     17  C   UNL     1     -12.213   6.464 -20.620  0.00  0.00    +0.023 A 
ENDBRANCH   9  12
ENDBRANCH   3   6
BRANCH   4  18
ATOM     18  C   UNL     1     -14.206   3.586 -16.458  0.00  0.00    +0.057 C 
ATOM     19  C   UNL     1     -15.588   3.341 -17.087  0.00  0.00    +0.036 C 
ATOM     20  C   UNL     1     -13.744   5.034 -16.708  0.00  0.00    +0.036 C 
ATOM     21  C   UNL     1     -14.370   3.447 -14.919  0.00  0.00    +0.036 C 
ENDBRANCH   4  18
BRANCH   1  24
ATOM     22  C   UNL     1     -10.166  -0.481 -15.730  0.00  0.00    +0.010 C 
ATOM     23  C   UNL     1     -10.149  -0.933 -17.149  0.00  0.00    +0.010 C 
ATOM     24  C   UNL     1     -11.456  -0.490 -16.525  0.00  0.00    +0.040 C 
ENDBRANCH   1  24
TORSDOF 4
ENDMDL
MODEL 3
REMARK VINA RESULT:      -6.7      2.677      6.615
REMARK  Name = min_compound932.pdb
REMARK  7 active torsions:
REMARK  status: ('A' for Active; 'I' for Inactive)
REMARK    1  A    between atoms: _3  and  _5
REMARK    2  A    between atoms: _6  and  _11
REMARK    3  A    between atoms: _7  and  _15
REMARK    4  A    between atoms: _11  and  _12
REMARK    5  A    between atoms: _11  and  _13
REMARK    6  A    between atoms: _11  and  _14
REMARK    7  A    between atoms: _16  and  _17
REMARK                            x       y       z     vdW  Elec       q    Type
REMARK                         _______ _______ _______ _____ _____    ______ ____
ROOT
ATOM      1  C   UNL     1     -14.809   6.424 -16.401  0.00  0.00    +0.068 A 
ATOM      2  C   UNL     1     -13.786   5.716 -17.042  0.00  0.00    +0.068 A 
ATOM      3  C   UNL     1     -13.976   4.388 -16.707  0.00  0.00    +0.125 A 
ATOM      4  N   UNL     1     -15.133   4.375 -15.935  0.00  0.00    -0.245 N 
ATOM      5  N   UNL     1     -15.632   5.620 -15.735  0.00  0.00    -0.174 NA
ENDROOT
BRANCH   3   6
ATOM      6  N   UNL     1     -13.206   3.275 -17.035  0.00  0.00    -0.254 N 
ATOM      7  H   UNL     1     -12.354   3.098 -16.530  0.00  0.00    +0.158 HD
ATOM      8  C   UNL     1     -13.385   2.561 -18.195  0.00  0.00    +0.309 C 
ATOM      9  N   UNL     1     -12.544   1.508 -18.426  0.00  0.00    -0.269 N 
ATOM     10  H   UNL     1     -12.598   1.233 -19.399  0.00  0.00    +0.156 HD
ATOM     11  O   UNL     1     -14.183   2.830 -19.092  0.00  0.00    -0.252 OA
BRANCH   9  12
ATOM     12  C   UNL     1     -11.703   0.734 -17.614  0.00  0.00    +0.035 A 
ATOM     13  C   UNL     1     -10.325   0.941 -17.755  0.00  0.00    +0.023 A 
ATOM     14  C   UNL     1      -9.411   0.215 -16.989  0.00  0.00    +0.002 A 
ATOM     15  C   UNL     1      -9.867  -0.740 -16.086  0.00  0.00    +0.000 A 
ATOM     16  C   UNL     1     -11.234  -0.983 -15.968  0.00  0.00    +0.002 A 
ATOM     17  C   UNL     1     -12.148  -0.259 -16.743  0.00  0.00    +0.023 A 
ENDBRANCH   9  12
ENDBRANCH   3   6
BRANCH   4  18
ATOM     18  C   UNL     1     -15.849   3.242 -15.310  0.00  0.00    +0.057 C 
ATOM     19  C   UNL     1     -17.271   3.137 -15.888  0.00  0.00    +0.036 C 
ATOM     20  C   UNL     1     -15.894   3.391 -13.778  0.00  0.00    +0.036 C 
ATOM     21  C   UNL     1     -15.138   1.889 -15.590  0.00  0.00    +0.036 C 
ENDBRANCH   4  18
BRANCH   1  24
ATOM     22  C   UNL     1     -16.301   8.538 -16.735  0.00  0.00    +0.010 C 
ATOM     23  C   UNL     1     -15.241   8.602 -17.780  0.00  0.00    +0.010 C 
ATOM     24  C   UNL     1     -14.939   7.938 -16.452  0.00  0.00    +0.040 C 
ENDBRANCH   1  24
TORSDOF 4
ENDMDL
MODEL 4
REMARK VINA RESULT:      -6.6      2.274      6.944
REMARK  Name = min_compound932.pdb
REMARK  7 active torsions:
REMARK  status: ('A' for Active; 'I' for Inactive)
REMARK    1  A    between atoms: _3  and  _5
REMARK    2  A    between atoms: _6  and  _11
REMARK    3  A    between atoms: _7  and  _15
REMARK    4  A    between atoms: _11  and  _12
REMARK    5  A    between atoms: _11  and  _13
REMARK    6  A    between atoms: _11  and  _14
REMARK    7  A    between atoms: _16  and  _17
REMARK                            x       y       z     vdW  Elec       q    Type
REMARK                         _______ _______ _______ _____ _____    ______ ____
ROOT
ATOM      1  C   UNL     1     -16.205   4.904 -17.437  0.00  0.00    +0.068 A 
ATOM      2  C   UNL     1     -15.668   3.619 -17.310  0.00  0.00    +0.068 A 
ATOM      3  C   UNL     1     -14.322   3.739 -17.600  0.00  0.00    +0.125 A 
ATOM      4  N   UNL     1     -14.124   5.097 -17.827  0.00  0.00    -0.245 N 
ATOM      5  N   UNL     1     -15.278   5.806 -17.742  0.00  0.00    -0.174 NA
ENDROOT
BRANCH   3   6
ATOM      6  N   UNL     1     -13.342   2.752 -17.674  0.00  0.00    -0.254 N 
ATOM      7  H   UNL     1     -12.640   2.699 -16.955  0.00  0.00    +0.158 HD
ATOM      8  C   UNL     1     -13.100   2.027 -18.816  0.00  0.00    +0.309 C 
ATOM      9  N   UNL     1     -12.087   1.110 -18.779  0.00  0.00    -0.269 N 
ATOM     10  H   UNL     1     -11.838   0.837 -19.722  0.00  0.00    +0.156 HD
ATOM     11  O   UNL     1     -13.658   2.182 -19.901  0.00  0.00    -0.252 OA
BRANCH   9  12
ATOM     12  C   UNL     1     -11.393   0.463 -17.748  0.00  0.00    +0.035 A 
ATOM     13  C   UNL     1      -9.996   0.581 -17.755  0.00  0.00    +0.023 A 
ATOM     14  C   UNL     1      -9.221  -0.030 -16.769  0.00  0.00    +0.002 A 
ATOM     15  C   UNL     1      -9.836  -0.784 -15.773  0.00  0.00    +0.000 A 
ATOM     16  C   UNL     1     -11.220  -0.943 -15.780  0.00  0.00    +0.002 A 
ATOM     17  C   UNL     1     -11.994  -0.335 -16.775  0.00  0.00    +0.023 A 
ENDBRANCH   9  12
ENDBRANCH   3   6
BRANCH   4  18
ATOM     18  C   UNL     1     -12.888   5.838 -18.155  0.00  0.00    +0.057 C 
ATOM     19  C   UNL     1     -11.739   5.374 -17.243  0.00  0.00    +0.036 C 
ATOM     20  C   UNL     1     -13.101   7.358 -18.030  0.00  0.00    +0.036 C 
ATOM     21  C   UNL     1     -12.440   5.586 -19.622  0.00  0.00    +0.036 C 
ENDBRANCH   4  18
BRANCH   1  24
ATOM     22  C   UNL     1     -18.400   5.962 -18.371  0.00  0.00    +0.010 C 
ATOM     23  C   UNL     1     -18.111   6.658 -17.087  0.00  0.00    +0.010 C 
ATOM     24  C   UNL     1     -17.683   5.216 -17.264  0.00  0.00    +0.040 C 
ENDBRANCH   1  24
TORSDOF 4
ENDMDL
MODEL 5
REMARK VINA RESULT:      -6.6      9.207     13.007
REMARK  Name = min_compound932.pdb
REMARK  7 active torsions:
REMARK  status: ('A' for Active; 'I' for Inactive)
REMARK    1  A    between atoms: _3  and  _5
REMARK    2  A    between atoms: _6  and  _11
REMARK    3  A    between atoms: _7  and  _15
REMARK    4  A    between atoms: _11  and  _12
REMARK    5  A    between atoms: _11  and  _13
REMARK    6  A    between atoms: _11  and  _14
REMARK    7  A    between atoms: _16  and  _17
REMARK                            x       y       z     vdW  Elec       q    Type
REMARK                         _______ _______ _______ _____ _____    ______ ____
ROOT
ATOM      1  C   UNL     1     -17.830   3.018 -10.357  0.00  0.00    +0.068 A 
ATOM      2  C   UNL     1     -16.662   2.474  -9.812  0.00  0.00    +0.068 A 
ATOM      3  C   UNL     1     -17.045   1.849  -8.640  0.00  0.00    +0.125 A 
ATOM      4  N   UNL     1     -18.427   2.007  -8.585  0.00  0.00    -0.245 N 
ATOM      5  N   UNL     1     -18.902   2.735  -9.626  0.00  0.00    -0.174 NA
ENDROOT
BRANCH   3   6
ATOM      6  N   UNL     1     -16.264   1.201  -7.686  0.00  0.00    -0.254 N 
ATOM      7  H   UNL     1     -15.640   1.740  -7.110  0.00  0.00    +0.158 HD
ATOM      8  C   UNL     1     -16.078  -0.160  -7.677  0.00  0.00    +0.309 C 
ATOM      9  N   UNL     1     -15.259  -0.680  -6.713  0.00  0.00    -0.269 N 
ATOM     10  H   UNL     1     -14.997  -1.626  -6.960  0.00  0.00    +0.156 HD
ATOM     11  O   UNL     1     -16.515  -0.954  -8.509  0.00  0.00    -0.252 OA
BRANCH   9  12
ATOM     12  C   UNL     1     -14.777  -0.209  -5.484  0.00  0.00    +0.035 A 
ATOM     13  C   UNL     1     -14.118   1.028  -5.497  0.00  0.00    +0.023 A 
ATOM     14  C   UNL     1     -13.603   1.576  -4.321  0.00  0.00    +0.002 A 
ATOM     15  C   UNL     1     -13.727   0.882  -3.121  0.00  0.00    +0.000 A 
ATOM     16  C   UNL     1     -14.343  -0.367  -3.104  0.00  0.00    +0.002 A 
ATOM     17  C   UNL     1     -14.852  -0.918  -4.286  0.00  0.00    +0.023 A 
ENDBRANCH   9  12
ENDBRANCH   3   6
BRANCH   4  18
ATOM     18  C   UNL     1     -19.401   1.532  -7.580  0.00  0.00    +0.057 C 
ATOM     19  C   UNL     1     -18.885   1.838  -6.163  0.00  0.00    +0.036 C 
ATOM     20  C   UNL     1     -19.679   0.026  -7.743  0.00  0.00    +0.036 C 
ATOM     21  C   UNL     1     -20.775   2.242  -7.731  0.00  0.00    +0.036 C 
ENDBRANCH   4  18
BRANCH   1  24
ATOM     22  C   UNL     1     -17.704   3.143 -12.961  0.00  0.00    +0.010 C 
ATOM     23  C   UNL     1     -16.580   3.973 -12.445  0.00  0.00    +0.010 C 
ATOM     24  C   UNL     1     -17.851   3.852 -11.629  0.00  0.00    +0.040 C 
ENDBRANCH   1  24
TORSDOF 4
ENDMDL
MODEL 6
REMARK VINA RESULT:      -6.5      2.418      5.250
REMARK  Name = min_compound932.pdb
REMARK  7 active torsions:
REMARK  status: ('A' for Active; 'I' for Inactive)
REMARK    1  A    between atoms: _3  and  _5
REMARK    2  A    between atoms: _6  and  _11
REMARK    3  A    between atoms: _7  and  _15
REMARK    4  A    between atoms: _11  and  _12
REMARK    5  A    between atoms: _11  and  _13
REMARK    6  A    between atoms: _11  and  _14
REMARK    7  A    between atoms: _16  and  _17
REMARK                            x       y       z     vdW  Elec       q    Type
REMARK                         _______ _______ _______ _____ _____    ______ ____
ROOT
ATOM      1  C   UNL     1     -11.717   0.479 -17.422  0.00  0.00    +0.068 A 
ATOM      2  C   UNL     1     -12.509   0.858 -16.333  0.00  0.00    +0.068 A 
ATOM      3  C   UNL     1     -13.300   1.899 -16.783  0.00  0.00    +0.125 A 
ATOM      4  N   UNL     1     -12.975   2.040 -18.128  0.00  0.00    -0.245 N 
ATOM      5  N   UNL     1     -11.996   1.183 -18.514  0.00  0.00    -0.174 NA
ENDROOT
BRANCH   3   6
ATOM      6  N   UNL     1     -14.224   2.673 -16.085  0.00  0.00    -0.254 N 
ATOM      7  H   UNL     1     -15.207   2.495 -16.203  0.00  0.00    +0.158 HD
ATOM      8  C   UNL     1     -13.889   3.853 -15.466  0.00  0.00    +0.309 C 
ATOM      9  N   UNL     1     -14.889   4.545 -14.842  0.00  0.00    -0.269 N 
ATOM     10  H   UNL     1     -14.585   5.494 -14.657  0.00  0.00    +0.156 HD
ATOM     11  O   UNL     1     -12.783   4.392 -15.488  0.00  0.00    -0.252 OA
BRANCH   9  12
ATOM     12  C   UNL     1     -16.169   4.208 -14.380  0.00  0.00    +0.035 A 
ATOM     13  C   UNL     1     -16.238   3.516 -13.163  0.00  0.00    +0.023 A 
ATOM     14  C   UNL     1     -17.469   3.138 -12.625  0.00  0.00    +0.002 A 
ATOM     15  C   UNL     1     -18.645   3.432 -13.309  0.00  0.00    +0.000 A 
ATOM     16  C   UNL     1     -18.584   4.081 -14.540  0.00  0.00    +0.002 A 
ATOM     17  C   UNL     1     -17.348   4.453 -15.081  0.00  0.00    +0.023 A 
ENDBRANCH   9  12
ENDBRANCH   3   6
BRANCH   4  18
ATOM     18  C   UNL     1     -13.509   2.971 -19.144  0.00  0.00    +0.057 C 
ATOM     19  C   UNL     1     -13.386   2.347 -20.545  0.00  0.00    +0.036 C 
ATOM     20  C   UNL     1     -12.784   4.329 -19.089  0.00  0.00    +0.036 C 
ATOM     21  C   UNL     1     -15.015   3.277 -18.909  0.00  0.00    +0.036 C 
ENDBRANCH   4  18
BRANCH   1  24
ATOM     22  C   UNL     1      -9.730  -0.626 -16.141  0.00  0.00    +0.010 C 
ATOM     23  C   UNL     1      -9.193  -0.200 -17.463  0.00  0.00    +0.010 C 
ATOM     24  C   UNL     1     -10.649  -0.601 -17.346  0.00  0.00    +0.040 C 
ENDBRANCH   1  24
TORSDOF 4
ENDMDL
MODEL 7
REMARK VINA RESULT:      -6.5      2.646      4.227
REMARK  Name = min_compound932.pdb
REMARK  7 active torsions:
REMARK  status: ('A' for Active; 'I' for Inactive)
REMARK    1  A    between atoms: _3  and  _5
REMARK    2  A    between atoms: _6  and  _11
REMARK    3  A    between atoms: _7  and  _15
REMARK    4  A    between atoms: _11  and  _12
REMARK    5  A    between atoms: _11  and  _13
REMARK    6  A    between atoms: _11  and  _14
REMARK    7  A    between atoms: _16  and  _17
REMARK                            x       y       z     vdW  Elec       q    Type
REMARK                         _______ _______ _______ _____ _____    ______ ____
ROOT
ATOM      1  C   UNL     1     -11.907   0.786 -17.204  0.00  0.00    +0.068 A 
ATOM      2  C   UNL     1     -12.496   1.481 -16.141  0.00  0.00    +0.068 A 
ATOM      3  C   UNL     1     -13.220   2.509 -16.715  0.00  0.00    +0.125 A 
ATOM      4  N   UNL     1     -13.068   2.333 -18.087  0.00  0.00    -0.245 N 
ATOM      5  N   UNL     1     -12.253   1.290 -18.384  0.00  0.00    -0.174 NA
ENDROOT
BRANCH   3   6
ATOM      6  N   UNL     1     -13.948   3.527 -16.103  0.00  0.00    -0.254 N 
ATOM      7  H   UNL     1     -13.504   4.412 -15.924  0.00  0.00    +0.158 HD
ATOM      8  C   UNL     1     -15.146   3.306 -15.469  0.00  0.00    +0.309 C 
ATOM      9  N   UNL     1     -15.751   4.377 -14.872  0.00  0.00    -0.269 N 
ATOM     10  H   UNL     1     -16.468   4.054 -14.233  0.00  0.00    +0.156 HD
ATOM     11  O   UNL     1     -15.691   2.215 -15.313  0.00  0.00    -0.252 OA
BRANCH   9  12
ATOM     12  C   UNL     1     -15.625   5.767 -15.001  0.00  0.00    +0.035 A 
ATOM     13  C   UNL     1     -15.291   6.256 -16.272  0.00  0.00    +0.023 A 
ATOM     14  C   UNL     1     -15.143   7.625 -16.495  0.00  0.00    +0.002 A 
ATOM     15  C   UNL     1     -15.309   8.521 -15.443  0.00  0.00    +0.000 A 
ATOM     16  C   UNL     1     -15.598   8.044 -14.167  0.00  0.00    +0.002 A 
ATOM     17  C   UNL     1     -15.740   6.669 -13.944  0.00  0.00    +0.023 A 
ENDBRANCH   9  12
ENDBRANCH   3   6
BRANCH   4  18
ATOM     18  C   UNL     1     -13.628   3.106 -19.215  0.00  0.00    +0.057 C 
ATOM     19  C   UNL     1     -13.488   2.306 -20.521  0.00  0.00    +0.036 C 
ATOM     20  C   UNL     1     -12.942   4.479 -19.343  0.00  0.00    +0.036 C 
ATOM     21  C   UNL     1     -15.142   3.399 -19.015  0.00  0.00    +0.036 C 
ENDBRANCH   4  18
BRANCH   1  24
ATOM     22  C   UNL     1      -9.836  -0.263 -16.012  0.00  0.00    +0.010 C 
ATOM     23  C   UNL     1      -9.527  -0.261 -17.469  0.00  0.00    +0.010 C 
ATOM     24  C   UNL     1     -10.966  -0.393 -17.014  0.00  0.00    +0.040 C 
ENDBRANCH   1  24
TORSDOF 4
ENDMDL
MODEL 8
REMARK VINA RESULT:      -6.5      2.466      6.157
REMARK  Name = min_compound932.pdb
REMARK  7 active torsions:
REMARK  status: ('A' for Active; 'I' for Inactive)
REMARK    1  A    between atoms: _3  and  _5
REMARK    2  A    between atoms: _6  and  _11
REMARK    3  A    between atoms: _7  and  _15
REMARK    4  A    between atoms: _11  and  _12
REMARK    5  A    between atoms: _11  and  _13
REMARK    6  A    between atoms: _11  and  _14
REMARK    7  A    between atoms: _16  and  _17
REMARK                            x       y       z     vdW  Elec       q    Type
REMARK                         _______ _______ _______ _____ _____    ______ ____
ROOT
ATOM      1  C   UNL     1     -15.547   3.853 -20.085  0.00  0.00    +0.068 A 
ATOM      2  C   UNL     1     -14.254   3.340 -19.938  0.00  0.00    +0.068 A 
ATOM      3  C   UNL     1     -14.056   3.192 -18.578  0.00  0.00    +0.125 A 
ATOM      4  N   UNL     1     -15.263   3.570 -17.997  0.00  0.00    -0.245 N 
ATOM      5  N   UNL     1     -16.167   3.989 -18.917  0.00  0.00    -0.174 NA
ENDROOT
BRANCH   3   6
ATOM      6  N   UNL     1     -12.920   2.773 -17.889  0.00  0.00    -0.254 N 
ATOM      7  H   UNL     1     -12.935   1.893 -17.402  0.00  0.00    +0.158 HD
ATOM      8  C   UNL     1     -11.877   3.616 -17.593  0.00  0.00    +0.309 C 
ATOM      9  N   UNL     1     -10.831   3.099 -16.880  0.00  0.00    -0.269 N 
ATOM     10  H   UNL     1     -10.266   3.852 -16.506  0.00  0.00    +0.156 HD
ATOM     11  O   UNL     1     -11.829   4.820 -17.837  0.00  0.00    -0.252 OA
BRANCH   9  12
ATOM     12  C   UNL     1     -10.373   1.800 -16.620  0.00  0.00    +0.035 A 
ATOM     13  C   UNL     1      -9.734   1.133 -17.674  0.00  0.00    +0.023 A 
ATOM     14  C   UNL     1      -9.246  -0.164 -17.508  0.00  0.00    +0.002 A 
ATOM     15  C   UNL     1      -9.410  -0.816 -16.290  0.00  0.00    +0.000 A 
ATOM     16  C   UNL     1     -10.082  -0.178 -15.249  0.00  0.00    +0.002 A 
ATOM     17  C   UNL     1     -10.576   1.120 -15.420  0.00  0.00    +0.023 A 
ENDBRANCH   9  12
ENDBRANCH   3   6
BRANCH   4  18
ATOM     18  C   UNL     1     -15.669   3.599 -16.576  0.00  0.00    +0.057 C 
ATOM     19  C   UNL     1     -17.197   3.738 -16.469  0.00  0.00    +0.036 C 
ATOM     20  C   UNL     1     -14.965   4.742 -15.821  0.00  0.00    +0.036 C 
ATOM     21  C   UNL     1     -15.274   2.289 -15.839  0.00  0.00    +0.036 C 
ENDBRANCH   4  18
BRANCH   1  24
ATOM     22  C   UNL     1     -16.872   3.154 -22.221  0.00  0.00    +0.010 C 
ATOM     23  C   UNL     1     -15.547   3.646 -22.690  0.00  0.00    +0.010 C 
ATOM     24  C   UNL     1     -16.152   4.227 -21.429  0.00  0.00    +0.040 C 
ENDBRANCH   1  24
TORSDOF 4
ENDMDL
MODEL 9
REMARK VINA RESULT:      -6.4      2.255      6.591
REMARK  Name = min_compound932.pdb
REMARK  7 active torsions:
REMARK  status: ('A' for Active; 'I' for Inactive)
REMARK    1  A    between atoms: _3  and  _5
REMARK    2  A    between atoms: _6  and  _11
REMARK    3  A    between atoms: _7  and  _15
REMARK    4  A    between atoms: _11  and  _12
REMARK    5  A    between atoms: _11  and  _13
REMARK    6  A    between atoms: _11  and  _14
REMARK    7  A    between atoms: _16  and  _17
REMARK                            x       y       z     vdW  Elec       q    Type
REMARK                         _______ _______ _______ _____ _____    ______ ____
ROOT
ATOM      1  C   UNL     1     -15.615   5.481 -16.500  0.00  0.00    +0.068 A 
ATOM      2  C   UNL     1     -14.513   4.965 -15.810  0.00  0.00    +0.068 A 
ATOM      3  C   UNL     1     -13.787   4.244 -16.738  0.00  0.00    +0.125 A 
ATOM      4  N   UNL     1     -14.465   4.420 -17.940  0.00  0.00    -0.245 N 
ATOM      5  N   UNL     1     -15.591   5.162 -17.790  0.00  0.00    -0.174 NA
ENDROOT
BRANCH   3   6
ATOM      6  N   UNL     1     -12.632   3.484 -16.562  0.00  0.00    -0.254 N 
ATOM      7  H   UNL     1     -12.697   2.584 -16.118  0.00  0.00    +0.158 HD
ATOM      8  C   UNL     1     -11.369   4.008 -16.695  0.00  0.00    +0.309 C 
ATOM      9  N   UNL     1     -10.311   3.175 -16.462  0.00  0.00    -0.269 N 
ATOM     10  H   UNL     1      -9.467   3.720 -16.336  0.00  0.00    +0.156 HD
ATOM     11  O   UNL     1     -11.096   5.185 -16.926  0.00  0.00    -0.252 OA
BRANCH   9  12
ATOM     12  C   UNL     1     -10.157   1.782 -16.419  0.00  0.00    +0.035 A 
ATOM     13  C   UNL     1      -9.938   1.133 -17.641  0.00  0.00    +0.023 A 
ATOM     14  C   UNL     1      -9.774  -0.252 -17.697  0.00  0.00    +0.002 A 
ATOM     15  C   UNL     1      -9.845  -1.006 -16.529  0.00  0.00    +0.000 A 
ATOM     16  C   UNL     1     -10.105  -0.375 -15.314  0.00  0.00    +0.002 A 
ATOM     17  C   UNL     1     -10.276   1.013 -15.262  0.00  0.00    +0.023 A 
ENDBRANCH   9  12
ENDBRANCH   3   6
BRANCH   4  18
ATOM     18  C   UNL     1     -14.156   3.911 -19.293  0.00  0.00    +0.057 C 
ATOM     19  C   UNL     1     -13.071   4.785 -19.947  0.00  0.00    +0.036 C 
ATOM     20  C   UNL     1     -15.419   3.865 -20.172  0.00  0.00    +0.036 C 
ATOM     21  C   UNL     1     -13.609   2.457 -19.248  0.00  0.00    +0.036 C 
ENDBRANCH   4  18
BRANCH   1  24
ATOM     22  C   UNL     1     -16.544   7.795 -15.732  0.00  0.00    +0.010 C 
ATOM     23  C   UNL     1     -16.430   6.960 -14.505  0.00  0.00    +0.010 C 
ATOM     24  C   UNL     1     -16.715   6.293 -15.835  0.00  0.00    +0.040 C 
ENDBRANCH   1  24
TORSDOF 4
ENDMDL
