MODEL 1
REMARK VINA RESULT:      -7.7      0.000      0.000
REMARK  Name = min_compound988.pdb
REMARK  7 active torsions:
REMARK  status: ('A' for Active; 'I' for Inactive)
REMARK    1  A    between atoms: _2  and  _21
REMARK    2  A    between atoms: _8  and  _14
REMARK    3  A    between atoms: _10  and  _12
REMARK    4  A    between atoms: _13  and  _14
REMARK    5  A    between atoms: _13  and  _17
REMARK    6  A    between atoms: _14  and  _15
REMARK    7  A    between atoms: _14  and  _16
REMARK                            x       y       z     vdW  Elec       q    Type
REMARK                         _______ _______ _______ _____ _____    ______ ____
ROOT
ATOM      1  O   UNL     1     -14.734   3.806 -15.859  0.00  0.00    -0.342 OA
ENDROOT
BRANCH   1   3
ATOM      2  N   UNL     1     -13.568   1.932 -16.372  0.00  0.00    -0.216 NA
ATOM      3  C   UNL     1     -13.500   3.226 -15.990  0.00  0.00    +0.248 A 
ATOM      4  C   UNL     1     -12.286   3.873 -15.704  0.00  0.00    +0.092 A 
ATOM      5  C   UNL     1     -11.074   3.189 -15.834  0.00  0.00    +0.035 A 
ATOM      6  C   UNL     1     -11.153   1.848 -16.148  0.00  0.00    -0.005 A 
ATOM      7  C   UNL     1     -10.078   0.809 -16.171  0.00  0.00    +0.039 C 
ATOM      8  C   UNL     1     -10.770  -0.333 -16.926  0.00  0.00    +0.011 C 
ATOM      9  C   UNL     1     -12.270  -0.202 -16.633  0.00  0.00    +0.056 C 
ATOM     10  C   UNL     1     -12.395   1.279 -16.413  0.00  0.00    +0.050 A 
BRANCH   5  11
ATOM     11  N   UNL     1      -9.881   3.775 -15.410  0.00  0.00    -0.358 N 
ATOM     12  H   UNL     1      -9.470   4.439 -16.060  0.00  0.00    +0.142 HD
ATOM     13  H   UNL     1      -9.194   3.124 -15.045  0.00  0.00    +0.142 HD
ENDBRANCH   5  11
ENDBRANCH   1   3
BRANCH   1  14
ATOM     14  S   UNL     1     -15.991   2.995 -15.748  0.00  0.00    -0.013 S 
BRANCH  14  15
ATOM     15  C   UNL     1     -16.079   3.436 -13.841  0.00  0.00    +0.098 A 
ATOM     16  C   UNL     1     -15.177   4.356 -13.285  0.00  0.00    +0.028 A 
ATOM     17  C   UNL     1     -15.264   4.674 -11.926  0.00  0.00    +0.005 A 
ATOM     18  C   UNL     1     -16.236   4.078 -11.113  0.00  0.00    -0.050 A 
ATOM     19  C   UNL     1     -16.361   4.471  -9.670  0.00  0.00    +0.044 C 
ATOM     20  C   UNL     1     -17.138   3.169 -11.680  0.00  0.00    +0.005 A 
ATOM     21  C   UNL     1     -17.060   2.838 -13.036  0.00  0.00    +0.028 A 
ENDBRANCH  14  15
BRANCH  14  22
ATOM     22  O   UNL     1     -16.688   4.154 -16.371  0.00  0.00    -0.263 OA
ATOM     23  H   UNL     1     -16.294   4.979 -16.048  0.00  0.00    +0.244 HD
ENDBRANCH  14  22
BRANCH  14  24
ATOM     24  O   UNL     1     -17.247   2.183 -15.636  0.00  0.00    -0.263 OA
ATOM     25  H   UNL     1     -18.015   2.751 -15.804  0.00  0.00    +0.244 HD
ENDBRANCH  14  24
ENDBRANCH   1  14
TORSDOF 6
ENDMDL
MODEL 2
REMARK VINA RESULT:      -7.2      1.319      2.260
REMARK  Name = min_compound988.pdb
REMARK  7 active torsions:
REMARK  status: ('A' for Active; 'I' for Inactive)
REMARK    1  A    between atoms: _2  and  _21
REMARK    2  A    between atoms: _8  and  _14
REMARK    3  A    between atoms: _10  and  _12
REMARK    4  A    between atoms: _13  and  _14
REMARK    5  A    between atoms: _13  and  _17
REMARK    6  A    between atoms: _14  and  _15
REMARK    7  A    between atoms: _14  and  _16
REMARK                            x       y       z     vdW  Elec       q    Type
REMARK                         _______ _______ _______ _____ _____    ______ ____
ROOT
ATOM      1  O   UNL     1     -13.908   4.234 -15.600  0.00  0.00    -0.342 OA
ENDROOT
BRANCH   1   3
ATOM      2  N   UNL     1     -12.278   2.663 -15.474  0.00  0.00    -0.216 NA
ATOM      3  C   UNL     1     -13.241   3.222 -16.240  0.00  0.00    +0.248 A 
ATOM      4  C   UNL     1     -13.478   2.835 -17.569  0.00  0.00    +0.092 A 
ATOM      5  C   UNL     1     -12.723   1.812 -18.151  0.00  0.00    +0.035 A 
ATOM      6  C   UNL     1     -11.691   1.299 -17.393  0.00  0.00    -0.005 A 
ATOM      7  C   UNL     1     -10.601   0.354 -17.784  0.00  0.00    +0.039 C 
ATOM      8  C   UNL     1     -10.043  -0.054 -16.414  0.00  0.00    +0.011 C 
ATOM      9  C   UNL     1     -10.287   1.133 -15.473  0.00  0.00    +0.056 C 
ATOM     10  C   UNL     1     -11.519   1.739 -16.085  0.00  0.00    +0.050 A 
BRANCH   5  11
ATOM     11  N   UNL     1     -12.850   1.525 -19.511  0.00  0.00    -0.358 N 
ATOM     12  H   UNL     1     -12.054   1.052 -19.929  0.00  0.00    +0.142 HD
ATOM     13  H   UNL     1     -13.175   2.300 -20.080  0.00  0.00    +0.142 HD
ENDBRANCH   5  11
ENDBRANCH   1   3
BRANCH   1  14
ATOM     14  S   UNL     1     -15.353   4.533 -15.868  0.00  0.00    -0.013 S 
BRANCH  14  15
ATOM     15  C   UNL     1     -15.751   4.183 -13.982  0.00  0.00    +0.098 A 
ATOM     16  C   UNL     1     -16.763   3.277 -13.628  0.00  0.00    +0.028 A 
ATOM     17  C   UNL     1     -17.024   3.025 -12.278  0.00  0.00    +0.005 A 
ATOM     18  C   UNL     1     -16.292   3.673 -11.275  0.00  0.00    -0.050 A 
ATOM     19  C   UNL     1     -16.538   3.350  -9.830  0.00  0.00    +0.044 C 
ATOM     20  C   UNL     1     -15.277   4.567 -11.638  0.00  0.00    +0.005 A 
ATOM     21  C   UNL     1     -15.008   4.832 -12.984  0.00  0.00    +0.028 A 
ENDBRANCH  14  15
BRANCH  14  22
ATOM     22  O   UNL     1     -14.967   5.971 -15.846  0.00  0.00    -0.263 OA
ATOM     23  H   UNL     1     -14.015   6.047 -15.677  0.00  0.00    +0.244 HD
ENDBRANCH  14  22
BRANCH  14  24
ATOM     24  O   UNL     1     -16.798   4.832 -16.136  0.00  0.00    -0.263 OA
ATOM     25  H   UNL     1     -17.113   4.277 -16.866  0.00  0.00    +0.244 HD
ENDBRANCH  14  24
ENDBRANCH   1  14
TORSDOF 6
ENDMDL
MODEL 3
REMARK VINA RESULT:      -7.1      4.499      6.419
REMARK  Name = min_compound988.pdb
REMARK  7 active torsions:
REMARK  status: ('A' for Active; 'I' for Inactive)
REMARK    1  A    between atoms: _2  and  _21
REMARK    2  A    between atoms: _8  and  _14
REMARK    3  A    between atoms: _10  and  _12
REMARK    4  A    between atoms: _13  and  _14
REMARK    5  A    between atoms: _13  and  _17
REMARK    6  A    between atoms: _14  and  _15
REMARK    7  A    between atoms: _14  and  _16
REMARK                            x       y       z     vdW  Elec       q    Type
REMARK                         _______ _______ _______ _____ _____    ______ ____
ROOT
ATOM      1  O   UNL     1     -13.185   3.021 -19.145  0.00  0.00    -0.342 OA
ENDROOT
BRANCH   1   3
ATOM      2  N   UNL     1     -12.181   1.253 -18.144  0.00  0.00    -0.216 NA
ATOM      3  C   UNL     1     -12.302   2.598 -18.187  0.00  0.00    +0.248 A 
ATOM      4  C   UNL     1     -11.631   3.452 -17.296  0.00  0.00    +0.092 A 
ATOM      5  C   UNL     1     -10.772   2.927 -16.327  0.00  0.00    +0.035 A 
ATOM      6  C   UNL     1     -10.712   1.551 -16.236  0.00  0.00    -0.005 A 
ATOM      7  C   UNL     1     -10.054   0.692 -15.204  0.00  0.00    +0.039 C 
ATOM      8  C   UNL     1     -10.071  -0.680 -15.891  0.00  0.00    +0.011 C 
ATOM      9  C   UNL     1     -11.292  -0.687 -16.819  0.00  0.00    +0.056 C 
ATOM     10  C   UNL     1     -11.410   0.774 -17.154  0.00  0.00    +0.050 A 
BRANCH   5  11
ATOM     11  N   UNL     1     -10.221   3.753 -15.346  0.00  0.00    -0.358 N 
ATOM     12  H   UNL     1     -10.125   4.730 -15.608  0.00  0.00    +0.142 HD
ATOM     13  H   UNL     1      -9.380   3.390 -14.909  0.00  0.00    +0.142 HD
ENDBRANCH   5  11
ENDBRANCH   1   3
BRANCH   1  14
ATOM     14  S   UNL     1     -14.166   4.128 -18.894  0.00  0.00    -0.013 S 
BRANCH  14  15
ATOM     15  C   UNL     1     -13.060   5.323 -19.984  0.00  0.00    +0.098 A 
ATOM     16  C   UNL     1     -13.032   5.183 -21.380  0.00  0.00    +0.028 A 
ATOM     17  C   UNL     1     -12.252   6.055 -22.146  0.00  0.00    +0.005 A 
ATOM     18  C   UNL     1     -11.492   7.060 -21.534  0.00  0.00    -0.050 A 
ATOM     19  C   UNL     1     -10.707   8.029 -22.368  0.00  0.00    +0.044 C 
ATOM     20  C   UNL     1     -11.535   7.197 -20.141  0.00  0.00    +0.005 A 
ATOM     21  C   UNL     1     -12.308   6.330 -19.362  0.00  0.00    +0.028 A 
ENDBRANCH  14  15
BRANCH  14  22
ATOM     22  O   UNL     1     -15.028   3.476 -19.918  0.00  0.00    -0.263 OA
ATOM     23  H   UNL     1     -14.487   2.888 -20.468  0.00  0.00    +0.244 HD
ENDBRANCH  14  22
BRANCH  14  24
ATOM     24  O   UNL     1     -15.146   5.235 -18.643  0.00  0.00    -0.263 OA
ATOM     25  H   UNL     1     -15.709   5.004 -17.888  0.00  0.00    +0.244 HD
ENDBRANCH  14  24
ENDBRANCH   1  14
TORSDOF 6
ENDMDL
MODEL 4
REMARK VINA RESULT:      -7.0      2.223      6.530
REMARK  Name = min_compound988.pdb
REMARK  7 active torsions:
REMARK  status: ('A' for Active; 'I' for Inactive)
REMARK    1  A    between atoms: _2  and  _21
REMARK    2  A    between atoms: _8  and  _14
REMARK    3  A    between atoms: _10  and  _12
REMARK    4  A    between atoms: _13  and  _14
REMARK    5  A    between atoms: _13  and  _17
REMARK    6  A    between atoms: _14  and  _15
REMARK    7  A    between atoms: _14  and  _16
REMARK                            x       y       z     vdW  Elec       q    Type
REMARK                         _______ _______ _______ _____ _____    ______ ____
ROOT
ATOM      1  O   UNL     1     -13.774   3.945 -17.375  0.00  0.00    -0.342 OA
ENDROOT
BRANCH   1   3
ATOM      2  N   UNL     1     -14.326   4.345 -15.213  0.00  0.00    -0.216 NA
ATOM      3  C   UNL     1     -14.736   3.853 -16.402  0.00  0.00    +0.248 A 
ATOM      4  C   UNL     1     -15.995   3.259 -16.588  0.00  0.00    +0.092 A 
ATOM      5  C   UNL     1     -16.900   3.179 -15.526  0.00  0.00    +0.035 A 
ATOM      6  C   UNL     1     -16.449   3.611 -14.297  0.00  0.00    -0.005 A 
ATOM      7  C   UNL     1     -17.087   3.486 -12.950  0.00  0.00    +0.039 C 
ATOM      8  C   UNL     1     -16.244   4.465 -12.120  0.00  0.00    +0.011 C 
ATOM      9  C   UNL     1     -14.852   4.493 -12.762  0.00  0.00    +0.056 C 
ATOM     10  C   UNL     1     -15.186   4.185 -14.194  0.00  0.00    +0.050 A 
BRANCH   5  11
ATOM     11  N   UNL     1     -18.089   2.460 -15.662  0.00  0.00    -0.358 N 
ATOM     12  H   UNL     1     -18.244   1.744 -14.958  0.00  0.00    +0.142 HD
ATOM     13  H   UNL     1     -18.274   2.119 -16.600  0.00  0.00    +0.142 HD
ENDBRANCH   5  11
ENDBRANCH   1   3
BRANCH   1  14
ATOM     14  S   UNL     1     -12.446   4.595 -17.125  0.00  0.00    -0.013 S 
BRANCH  14  15
ATOM     15  C   UNL     1     -11.660   2.824 -16.837  0.00  0.00    +0.098 A 
ATOM     16  C   UNL     1     -11.850   1.803 -17.780  0.00  0.00    +0.028 A 
ATOM     17  C   UNL     1     -11.268   0.549 -17.569  0.00  0.00    +0.005 A 
ATOM     18  C   UNL     1     -10.504   0.299 -16.423  0.00  0.00    -0.050 A 
ATOM     19  C   UNL     1      -9.833  -1.030 -16.235  0.00  0.00    +0.044 C 
ATOM     20  C   UNL     1     -10.311   1.328 -15.492  0.00  0.00    +0.005 A 
ATOM     21  C   UNL     1     -10.890   2.585 -15.688  0.00  0.00    +0.028 A 
ENDBRANCH  14  15
BRANCH  14  22
ATOM     22  O   UNL     1     -12.343   4.747 -18.602  0.00  0.00    -0.263 OA
ATOM     23  H   UNL     1     -12.751   5.586 -18.869  0.00  0.00    +0.244 HD
ENDBRANCH  14  22
BRANCH  14  24
ATOM     24  O   UNL     1     -11.117   5.245 -16.875  0.00  0.00    -0.263 OA
ATOM     25  H   UNL     1     -10.422   4.568 -16.865  0.00  0.00    +0.244 HD
ENDBRANCH  14  24
ENDBRANCH   1  14
TORSDOF 6
ENDMDL
MODEL 5
REMARK VINA RESULT:      -7.0      1.978      2.624
REMARK  Name = min_compound988.pdb
REMARK  7 active torsions:
REMARK  status: ('A' for Active; 'I' for Inactive)
REMARK    1  A    between atoms: _2  and  _21
REMARK    2  A    between atoms: _8  and  _14
REMARK    3  A    between atoms: _10  and  _12
REMARK    4  A    between atoms: _13  and  _14
REMARK    5  A    between atoms: _13  and  _17
REMARK    6  A    between atoms: _14  and  _15
REMARK    7  A    between atoms: _14  and  _16
REMARK                            x       y       z     vdW  Elec       q    Type
REMARK                         _______ _______ _______ _____ _____    ______ ____
ROOT
ATOM      1  O   UNL     1     -15.016   2.944 -16.150  0.00  0.00    -0.342 OA
ENDROOT
BRANCH   1   3
ATOM      2  N   UNL     1     -13.508   1.288 -16.498  0.00  0.00    -0.216 NA
ATOM      3  C   UNL     1     -13.694   2.583 -16.161  0.00  0.00    +0.248 A 
ATOM      4  C   UNL     1     -12.637   3.436 -15.804  0.00  0.00    +0.092 A 
ATOM      5  C   UNL     1     -11.319   2.970 -15.813  0.00  0.00    +0.035 A 
ATOM      6  C   UNL     1     -11.142   1.629 -16.081  0.00  0.00    -0.005 A 
ATOM      7  C   UNL     1      -9.907   0.792 -15.981  0.00  0.00    +0.039 C 
ATOM      8  C   UNL     1     -10.328  -0.470 -16.745  0.00  0.00    +0.011 C 
ATOM      9  C   UNL     1     -11.848  -0.595 -16.576  0.00  0.00    +0.056 C 
ATOM     10  C   UNL     1     -12.241   0.847 -16.422  0.00  0.00    +0.050 A 
BRANCH   5  11
ATOM     11  N   UNL     1     -10.284   3.764 -15.318  0.00  0.00    -0.358 N 
ATOM     12  H   UNL     1     -10.487   4.758 -15.268  0.00  0.00    +0.142 HD
ATOM     13  H   UNL     1      -9.375   3.580 -15.728  0.00  0.00    +0.142 HD
ENDBRANCH   5  11
ENDBRANCH   1   3
BRANCH   1  14
ATOM     14  S   UNL     1     -15.856   2.859 -14.910  0.00  0.00    -0.013 S 
BRANCH  14  15
ATOM     15  C   UNL     1     -15.884   4.816 -14.824  0.00  0.00    +0.098 A 
ATOM     16  C   UNL     1     -16.021   5.575 -15.997  0.00  0.00    +0.028 A 
ATOM     17  C   UNL     1     -16.058   6.970 -15.917  0.00  0.00    +0.005 A 
ATOM     18  C   UNL     1     -15.949   7.619 -14.681  0.00  0.00    -0.050 A 
ATOM     19  C   UNL     1     -16.050   9.114 -14.599  0.00  0.00    +0.044 C 
ATOM     20  C   UNL     1     -15.823   6.853 -13.515  0.00  0.00    +0.005 A 
ATOM     21  C   UNL     1     -15.782   5.457 -13.580  0.00  0.00    +0.028 A 
ENDBRANCH  14  15
BRANCH  14  22
ATOM     22  O   UNL     1     -17.002   2.569 -15.815  0.00  0.00    -0.263 OA
ATOM     23  H   UNL     1     -16.781   1.815 -16.384  0.00  0.00    +0.244 HD
ENDBRANCH  14  22
BRANCH  14  24
ATOM     24  O   UNL     1     -16.696   2.775 -13.671  0.00  0.00    -0.263 OA
ATOM     25  H   UNL     1     -16.825   1.845 -13.429  0.00  0.00    +0.244 HD
ENDBRANCH  14  24
ENDBRANCH   1  14
TORSDOF 6
ENDMDL
MODEL 6
REMARK VINA RESULT:      -7.0      3.926      6.269
REMARK  Name = min_compound988.pdb
REMARK  7 active torsions:
REMARK  status: ('A' for Active; 'I' for Inactive)
REMARK    1  A    between atoms: _2  and  _21
REMARK    2  A    between atoms: _8  and  _14
REMARK    3  A    between atoms: _10  and  _12
REMARK    4  A    between atoms: _13  and  _14
REMARK    5  A    between atoms: _13  and  _17
REMARK    6  A    between atoms: _14  and  _15
REMARK    7  A    between atoms: _14  and  _16
REMARK                            x       y       z     vdW  Elec       q    Type
REMARK                         _______ _______ _______ _____ _____    ______ ____
ROOT
ATOM      1  O   UNL     1     -13.086   4.231 -16.829  0.00  0.00    -0.342 OA
ENDROOT
BRANCH   1   3
ATOM      2  N   UNL     1     -12.160   5.587 -18.391  0.00  0.00    -0.216 NA
ATOM      3  C   UNL     1     -12.978   4.538 -18.161  0.00  0.00    +0.248 A 
ATOM      4  C   UNL     1     -13.683   3.882 -19.184  0.00  0.00    +0.092 A 
ATOM      5  C   UNL     1     -13.536   4.287 -20.513  0.00  0.00    +0.035 A 
ATOM      6  C   UNL     1     -12.762   5.407 -20.735  0.00  0.00    -0.005 A 
ATOM      7  C   UNL     1     -12.564   6.196 -21.989  0.00  0.00    +0.039 C 
ATOM      8  C   UNL     1     -11.346   7.054 -21.623  0.00  0.00    +0.011 C 
ATOM      9  C   UNL     1     -11.397   7.258 -20.104  0.00  0.00    +0.056 C 
ATOM     10  C   UNL     1     -12.099   6.003 -19.667  0.00  0.00    +0.050 A 
BRANCH   5  11
ATOM     11  N   UNL     1     -14.343   3.742 -21.512  0.00  0.00    -0.358 N 
ATOM     12  H   UNL     1     -13.844   3.372 -22.317  0.00  0.00    +0.142 HD
ATOM     13  H   UNL     1     -15.131   4.320 -21.785  0.00  0.00    +0.142 HD
ENDBRANCH   5  11
ENDBRANCH   1   3
BRANCH   1  14
ATOM     14  S   UNL     1     -14.045   3.194 -16.323  0.00  0.00    -0.013 S 
BRANCH  14  15
ATOM     15  C   UNL     1     -12.575   1.901 -16.256  0.00  0.00    +0.098 A 
ATOM     16  C   UNL     1     -11.352   2.249 -15.661  0.00  0.00    +0.028 A 
ATOM     17  C   UNL     1     -10.319   1.308 -15.604  0.00  0.00    +0.005 A 
ATOM     18  C   UNL     1     -10.488   0.027 -16.143  0.00  0.00    -0.050 A 
ATOM     19  C   UNL     1      -9.395  -0.994 -16.023  0.00  0.00    +0.044 C 
ATOM     20  C   UNL     1     -11.715  -0.314 -16.725  0.00  0.00    +0.005 A 
ATOM     21  C   UNL     1     -12.756   0.617 -16.792  0.00  0.00    +0.028 A 
ENDBRANCH  14  15
BRANCH  14  22
ATOM     22  O   UNL     1     -13.933   3.866 -14.999  0.00  0.00    -0.263 OA
ATOM     23  H   UNL     1     -14.147   3.233 -14.297  0.00  0.00    +0.244 HD
ENDBRANCH  14  22
BRANCH  14  24
ATOM     24  O   UNL     1     -15.004   2.158 -15.818  0.00  0.00    -0.263 OA
ATOM     25  H   UNL     1     -15.529   1.814 -16.557  0.00  0.00    +0.244 HD
ENDBRANCH  14  24
ENDBRANCH   1  14
TORSDOF 6
ENDMDL
MODEL 7
REMARK VINA RESULT:      -7.0      5.880      8.882
REMARK  Name = min_compound988.pdb
REMARK  7 active torsions:
REMARK  status: ('A' for Active; 'I' for Inactive)
REMARK    1  A    between atoms: _2  and  _21
REMARK    2  A    between atoms: _8  and  _14
REMARK    3  A    between atoms: _10  and  _12
REMARK    4  A    between atoms: _13  and  _14
REMARK    5  A    between atoms: _13  and  _17
REMARK    6  A    between atoms: _14  and  _15
REMARK    7  A    between atoms: _14  and  _16
REMARK                            x       y       z     vdW  Elec       q    Type
REMARK                         _______ _______ _______ _____ _____    ______ ____
ROOT
ATOM      1  O   UNL     1     -17.179   1.555  -8.539  0.00  0.00    -0.342 OA
ENDROOT
BRANCH   1   3
ATOM      2  N   UNL     1     -16.281   2.004  -6.507  0.00  0.00    -0.216 NA
ATOM      3  C   UNL     1     -16.484   1.070  -7.462  0.00  0.00    +0.248 A 
ATOM      4  C   UNL     1     -15.976  -0.236  -7.370  0.00  0.00    +0.092 A 
ATOM      5  C   UNL     1     -15.247  -0.633  -6.246  0.00  0.00    +0.035 A 
ATOM      6  C   UNL     1     -14.976   0.345  -5.310  0.00  0.00    -0.005 A 
ATOM      7  C   UNL     1     -14.078   0.298  -4.116  0.00  0.00    +0.039 C 
ATOM      8  C   UNL     1     -14.516   1.555  -3.354  0.00  0.00    +0.011 C 
ATOM      9  C   UNL     1     -15.017   2.551  -4.407  0.00  0.00    +0.056 C 
ATOM     10  C   UNL     1     -15.512   1.618  -5.476  0.00  0.00    +0.050 A 
BRANCH   5  11
ATOM     11  N   UNL     1     -14.615  -1.876  -6.214  0.00  0.00    -0.358 N 
ATOM     12  H   UNL     1     -14.047  -2.052  -5.390  0.00  0.00    +0.142 HD
ATOM     13  H   UNL     1     -14.132  -2.129  -7.070  0.00  0.00    +0.142 HD
ENDBRANCH   5  11
ENDBRANCH   1   3
BRANCH   1  14
ATOM     14  S   UNL     1     -17.913   2.862  -8.493  0.00  0.00    -0.013 S 
BRANCH  14  15
ATOM     15  C   UNL     1     -17.004   3.404 -10.141  0.00  0.00    +0.098 A 
ATOM     16  C   UNL     1     -17.513   3.017 -11.391  0.00  0.00    +0.028 A 
ATOM     17  C   UNL     1     -16.863   3.427 -12.558  0.00  0.00    +0.005 A 
ATOM     18  C   UNL     1     -15.706   4.212 -12.495  0.00  0.00    -0.050 A 
ATOM     19  C   UNL     1     -15.050   4.698 -13.755  0.00  0.00    +0.044 C 
ATOM     20  C   UNL     1     -15.212   4.602 -11.244  0.00  0.00    +0.005 A 
ATOM     21  C   UNL     1     -15.849   4.197 -10.068  0.00  0.00    +0.028 A 
ENDBRANCH  14  15
BRANCH  14  22
ATOM     22  O   UNL     1     -19.091   2.116  -9.015  0.00  0.00    -0.263 OA
ATOM     23  H   UNL     1     -19.905   2.578  -8.761  0.00  0.00    +0.244 HD
ENDBRANCH  14  22
BRANCH  14  24
ATOM     24  O   UNL     1     -18.647   4.169  -8.447  0.00  0.00    -0.263 OA
ATOM     25  H   UNL     1     -18.013   4.893  -8.327  0.00  0.00    +0.244 HD
ENDBRANCH  14  24
ENDBRANCH   1  14
TORSDOF 6
ENDMDL
MODEL 8
REMARK VINA RESULT:      -6.8      2.309      6.376
REMARK  Name = min_compound988.pdb
REMARK  7 active torsions:
REMARK  status: ('A' for Active; 'I' for Inactive)
REMARK    1  A    between atoms: _2  and  _21
REMARK    2  A    between atoms: _8  and  _14
REMARK    3  A    between atoms: _10  and  _12
REMARK    4  A    between atoms: _13  and  _14
REMARK    5  A    between atoms: _13  and  _17
REMARK    6  A    between atoms: _14  and  _15
REMARK    7  A    between atoms: _14  and  _16
REMARK                            x       y       z     vdW  Elec       q    Type
REMARK                         _______ _______ _______ _____ _____    ______ ____
ROOT
ATOM      1  O   UNL     1     -14.097   3.605 -16.897  0.00  0.00    -0.342 OA
ENDROOT
BRANCH   1   3
ATOM      2  N   UNL     1     -15.375   3.116 -15.091  0.00  0.00    -0.216 NA
ATOM      3  C   UNL     1     -14.749   4.086 -15.792  0.00  0.00    +0.248 A 
ATOM      4  C   UNL     1     -14.820   5.445 -15.443  0.00  0.00    +0.092 A 
ATOM      5  C   UNL     1     -15.538   5.847 -14.314  0.00  0.00    +0.035 A 
ATOM      6  C   UNL     1     -16.239   4.865 -13.646  0.00  0.00    -0.005 A 
ATOM      7  C   UNL     1     -17.237   4.990 -12.541  0.00  0.00    +0.039 C 
ATOM      8  C   UNL     1     -17.340   3.539 -12.054  0.00  0.00    +0.011 C 
ATOM      9  C   UNL     1     -17.037   2.650 -13.266  0.00  0.00    +0.056 C 
ATOM     10  C   UNL     1     -16.121   3.541 -14.057  0.00  0.00    +0.050 A 
BRANCH   5  11
ATOM     11  N   UNL     1     -15.737   7.202 -14.047  0.00  0.00    -0.358 N 
ATOM     12  H   UNL     1     -15.012   7.823 -14.395  0.00  0.00    +0.142 HD
ATOM     13  H   UNL     1     -15.992   7.414 -13.088  0.00  0.00    +0.142 HD
ENDBRANCH   5  11
ENDBRANCH   1   3
BRANCH   1  14
ATOM     14  S   UNL     1     -12.822   4.214 -17.400  0.00  0.00    -0.013 S 
BRANCH  14  15
ATOM     15  C   UNL     1     -11.876   2.564 -16.931  0.00  0.00    +0.098 A 
ATOM     16  C   UNL     1     -10.974   2.547 -15.856  0.00  0.00    +0.028 A 
ATOM     17  C   UNL     1     -10.320   1.357 -15.522  0.00  0.00    +0.005 A 
ATOM     18  C   UNL     1     -10.549   0.185 -16.254  0.00  0.00    -0.050 A 
ATOM     19  C   UNL     1      -9.888  -1.100 -15.850  0.00  0.00    +0.044 C 
ATOM     20  C   UNL     1     -11.458   0.210 -17.318  0.00  0.00    +0.005 A 
ATOM     21  C   UNL     1     -12.117   1.394 -17.666  0.00  0.00    +0.028 A 
ENDBRANCH  14  15
BRANCH  14  22
ATOM     22  O   UNL     1     -13.323   3.910 -18.770  0.00  0.00    -0.263 OA
ATOM     23  H   UNL     1     -13.741   4.701 -19.143  0.00  0.00    +0.244 HD
ENDBRANCH  14  22
BRANCH  14  24
ATOM     24  O   UNL     1     -11.547   4.823 -17.904  0.00  0.00    -0.263 OA
ATOM     25  H   UNL     1     -11.140   5.350 -17.199  0.00  0.00    +0.244 HD
ENDBRANCH  14  24
ENDBRANCH   1  14
TORSDOF 6
ENDMDL
MODEL 9
REMARK VINA RESULT:      -6.8      5.210      8.058
REMARK  Name = min_compound988.pdb
REMARK  7 active torsions:
REMARK  status: ('A' for Active; 'I' for Inactive)
REMARK    1  A    between atoms: _2  and  _21
REMARK    2  A    between atoms: _8  and  _14
REMARK    3  A    between atoms: _10  and  _12
REMARK    4  A    between atoms: _13  and  _14
REMARK    5  A    between atoms: _13  and  _17
REMARK    6  A    between atoms: _14  and  _15
REMARK    7  A    between atoms: _14  and  _16
REMARK                            x       y       z     vdW  Elec       q    Type
REMARK                         _______ _______ _______ _____ _____    ______ ____
ROOT
ATOM      1  O   UNL     1     -17.555   3.245  -9.351  0.00  0.00    -0.342 OA
ENDROOT
BRANCH   1   3
ATOM      2  N   UNL     1     -15.884   2.238  -8.198  0.00  0.00    -0.216 NA
ATOM      3  C   UNL     1     -17.210   2.267  -8.454  0.00  0.00    +0.248 A 
ATOM      4  C   UNL     1     -18.114   1.348  -7.897  0.00  0.00    +0.092 A 
ATOM      5  C   UNL     1     -17.664   0.361  -7.016  0.00  0.00    +0.035 A 
ATOM      6  C   UNL     1     -16.301   0.286  -6.818  0.00  0.00    -0.005 A 
ATOM      7  C   UNL     1     -15.498  -0.753  -6.104  0.00  0.00    +0.039 C 
ATOM      8  C   UNL     1     -14.142  -0.049  -5.963  0.00  0.00    +0.011 C 
ATOM      9  C   UNL     1     -14.025   0.912  -7.152  0.00  0.00    +0.056 C 
ATOM     10  C   UNL     1     -15.470   1.232  -7.409  0.00  0.00    +0.050 A 
BRANCH   5  11
ATOM     11  N   UNL     1     -18.527  -0.644  -6.578  0.00  0.00    -0.358 N 
ATOM     12  H   UNL     1     -18.225  -1.141  -5.745  0.00  0.00    +0.142 HD
ATOM     13  H   UNL     1     -18.846  -1.276  -7.304  0.00  0.00    +0.142 HD
ENDBRANCH   5  11
ENDBRANCH   1   3
BRANCH   1  14
ATOM     14  S   UNL     1     -16.747   4.497  -9.518  0.00  0.00    -0.013 S 
BRANCH  14  15
ATOM     15  C   UNL     1     -16.423   4.010 -11.388  0.00  0.00    +0.098 A 
ATOM     16  C   UNL     1     -15.342   4.568 -12.088  0.00  0.00    +0.028 A 
ATOM     17  C   UNL     1     -15.113   4.196 -13.416  0.00  0.00    +0.005 A 
ATOM     18  C   UNL     1     -15.956   3.281 -14.058  0.00  0.00    -0.050 A 
ATOM     19  C   UNL     1     -15.666   2.843 -15.464  0.00  0.00    +0.044 C 
ATOM     20  C   UNL     1     -17.025   2.722 -13.348  0.00  0.00    +0.005 A 
ATOM     21  C   UNL     1     -17.268   3.086 -12.021  0.00  0.00    +0.028 A 
ENDBRANCH  14  15
BRANCH  14  22
ATOM     22  O   UNL     1     -18.047   5.218  -9.603  0.00  0.00    -0.263 OA
ATOM     23  H   UNL     1     -17.980   5.928 -10.260  0.00  0.00    +0.244 HD
ENDBRANCH  14  22
BRANCH  14  24
ATOM     24  O   UNL     1     -15.938   5.749  -9.686  0.00  0.00    -0.263 OA
ATOM     25  H   UNL     1     -15.316   5.834  -8.946  0.00  0.00    +0.244 HD
ENDBRANCH  14  24
ENDBRANCH   1  14
TORSDOF 6
ENDMDL
