MODEL 1
REMARK VINA RESULT:      -7.3      0.000      0.000
REMARK  Name = min_compound986.pdb
REMARK  4 active torsions:
REMARK  status: ('A' for Active; 'I' for Inactive)
REMARK    1  A    between atoms: _3  and  _16
REMARK    2  A    between atoms: _9  and  _17
REMARK    3  A    between atoms: _14  and  _21
REMARK    4  A    between atoms: _15  and  _18
REMARK                            x       y       z     vdW  Elec       q    Type
REMARK                         _______ _______ _______ _____ _____    ______ ____
ROOT
ATOM      1  C   UNL     1     -13.693   7.525 -17.601  0.00  0.00    +0.002 A 
ATOM      2  C   UNL     1     -12.546   6.742 -17.482  0.00  0.00    +0.026 A 
ATOM      3  C   UNL     1     -12.702   5.373 -17.204  0.00  0.00    +0.050 A 
ATOM      4  N   UNL     1     -11.759   4.381 -16.974  0.00  0.00    -0.342 N 
ATOM      5  C   UNL     1     -10.388   4.700 -16.636  0.00  0.00    +0.149 C 
ATOM      6  C   UNL     1     -12.344   3.120 -16.895  0.00  0.00    +0.061 A 
ATOM      7  C   UNL     1     -11.791   1.764 -16.850  0.00  0.00    +0.051 A 
ATOM      8  C   UNL     1     -10.423   1.425 -17.204  0.00  0.00    +0.127 A 
ATOM      9  C   UNL     1     -10.097   0.076 -16.980  0.00  0.00    +0.049 A 
ATOM     10  C   UNL     1     -10.996  -0.895 -16.503  0.00  0.00    +0.049 A 
ATOM     11  C   UNL     1     -12.344  -0.644 -16.225  0.00  0.00    +0.125 A 
ATOM     12  C   UNL     1     -12.730   0.722 -16.438  0.00  0.00    +0.029 A 
ATOM     13  C   UNL     1     -14.081   1.059 -16.258  0.00  0.00    +0.013 A 
ATOM     14  C   UNL     1     -14.589   2.338 -16.464  0.00  0.00    +0.011 A 
ATOM     15  C   UNL     1     -13.716   3.389 -16.776  0.00  0.00    +0.009 A 
ATOM     16  C   UNL     1     -13.949   4.783 -17.046  0.00  0.00    +0.011 A 
ATOM     17  C   UNL     1     -15.118   5.588 -17.160  0.00  0.00    -0.041 A 
ATOM     18  C   UNL     1     -16.481   4.976 -17.021  0.00  0.00    +0.044 C 
ATOM     19  C   UNL     1     -14.955   6.963 -17.441  0.00  0.00    +0.004 A 
ENDROOT
BRANCH  11  20
ATOM     20  O   UNL     1     -13.112  -1.598 -15.823  0.00  0.00    -0.506 OA
ATOM     21  H   UNL     1     -13.860  -1.844 -16.332  0.00  0.00    +0.292 HD
ENDBRANCH  11  20
BRANCH   8  22
ATOM     22  O   UNL     1      -9.538   2.195 -17.725  0.00  0.00    -0.506 OA
ATOM     23  H   UNL     1      -9.130   1.960 -18.536  0.00  0.00    +0.292 HD
ENDBRANCH   8  22
TORSDOF 2
ENDMDL
MODEL 2
REMARK VINA RESULT:      -7.1     10.211     11.122
REMARK  Name = min_compound986.pdb
REMARK  4 active torsions:
REMARK  status: ('A' for Active; 'I' for Inactive)
REMARK    1  A    between atoms: _3  and  _16
REMARK    2  A    between atoms: _9  and  _17
REMARK    3  A    between atoms: _14  and  _21
REMARK    4  A    between atoms: _15  and  _18
REMARK                            x       y       z     vdW  Elec       q    Type
REMARK                         _______ _______ _______ _____ _____    ______ ____
ROOT
ATOM      1  C   UNL     1     -18.650   6.090  -8.493  0.00  0.00    +0.002 A 
ATOM      2  C   UNL     1     -18.194   5.673  -7.243  0.00  0.00    +0.026 A 
ATOM      3  C   UNL     1     -17.619   4.394  -7.137  0.00  0.00    +0.050 A 
ATOM      4  N   UNL     1     -17.145   3.702  -6.033  0.00  0.00    -0.342 N 
ATOM      5  C   UNL     1     -17.499   4.090  -4.683  0.00  0.00    +0.149 C 
ATOM      6  C   UNL     1     -16.509   2.519  -6.398  0.00  0.00    +0.061 A 
ATOM      7  C   UNL     1     -15.700   1.548  -5.655  0.00  0.00    +0.051 A 
ATOM      8  C   UNL     1     -15.110   1.802  -4.352  0.00  0.00    +0.127 A 
ATOM      9  C   UNL     1     -14.467   0.684  -3.793  0.00  0.00    +0.049 A 
ATOM     10  C   UNL     1     -14.345  -0.567  -4.425  0.00  0.00    +0.049 A 
ATOM     11  C   UNL     1     -14.822  -0.843  -5.712  0.00  0.00    +0.125 A 
ATOM     12  C   UNL     1     -15.489   0.269  -6.329  0.00  0.00    +0.029 A 
ATOM     13  C   UNL     1     -15.936   0.115  -7.651  0.00  0.00    +0.013 A 
ATOM     14  C   UNL     1     -16.567   1.125  -8.371  0.00  0.00    +0.011 A 
ATOM     15  C   UNL     1     -16.869   2.340  -7.743  0.00  0.00    +0.009 A 
ATOM     16  C   UNL     1     -17.495   3.543  -8.227  0.00  0.00    +0.011 A 
ATOM     17  C   UNL     1     -17.970   3.968  -9.500  0.00  0.00    -0.041 A 
ATOM     18  C   UNL     1     -17.825   3.082 -10.703  0.00  0.00    +0.044 C 
ATOM     19  C   UNL     1     -18.544   5.255  -9.600  0.00  0.00    +0.004 A 
ENDROOT
BRANCH  11  20
ATOM     20  O   UNL     1     -14.640  -2.008  -6.235  0.00  0.00    -0.506 OA
ATOM     21  H   UNL     1     -14.696  -2.775  -5.699  0.00  0.00    +0.292 HD
ENDBRANCH  11  20
BRANCH   8  22
ATOM     22  O   UNL     1     -15.077   2.915  -3.712  0.00  0.00    -0.506 OA
ATOM     23  H   UNL     1     -14.305   3.164  -3.242  0.00  0.00    +0.292 HD
ENDBRANCH   8  22
TORSDOF 2
ENDMDL
MODEL 3
REMARK VINA RESULT:      -6.8     14.309     15.594
REMARK  Name = min_compound986.pdb
REMARK  4 active torsions:
REMARK  status: ('A' for Active; 'I' for Inactive)
REMARK    1  A    between atoms: _3  and  _16
REMARK    2  A    between atoms: _9  and  _17
REMARK    3  A    between atoms: _14  and  _21
REMARK    4  A    between atoms: _15  and  _18
REMARK                            x       y       z     vdW  Elec       q    Type
REMARK                         _______ _______ _______ _____ _____    ______ ____
ROOT
ATOM      1  C   UNL     1     -13.822   1.866  -3.608  0.00  0.00    +0.002 A 
ATOM      2  C   UNL     1     -13.452   0.622  -3.100  0.00  0.00    +0.026 A 
ATOM      3  C   UNL     1     -14.452  -0.352  -2.933  0.00  0.00    +0.050 A 
ATOM      4  N   UNL     1     -14.392  -1.632  -2.402  0.00  0.00    -0.342 N 
ATOM      5  C   UNL     1     -13.280  -2.062  -1.580  0.00  0.00    +0.149 C 
ATOM      6  C   UNL     1     -15.590  -2.320  -2.573  0.00  0.00    +0.061 A 
ATOM      7  C   UNL     1     -15.978  -3.718  -2.365  0.00  0.00    +0.051 A 
ATOM      8  C   UNL     1     -15.037  -4.814  -2.206  0.00  0.00    +0.127 A 
ATOM      9  C   UNL     1     -15.646  -6.047  -1.914  0.00  0.00    +0.049 A 
ATOM     10  C   UNL     1     -17.035  -6.250  -1.822  0.00  0.00    +0.049 A 
ATOM     11  C   UNL     1     -17.989  -5.250  -2.047  0.00  0.00    +0.125 A 
ATOM     12  C   UNL     1     -17.418  -3.968  -2.350  0.00  0.00    +0.029 A 
ATOM     13  C   UNL     1     -18.294  -2.917  -2.665  0.00  0.00    +0.013 A 
ATOM     14  C   UNL     1     -17.867  -1.639  -3.008  0.00  0.00    +0.011 A 
ATOM     15  C   UNL     1     -16.502  -1.324  -2.955  0.00  0.00    +0.009 A 
ATOM     16  C   UNL     1     -15.782  -0.114  -3.255  0.00  0.00    +0.011 A 
ATOM     17  C   UNL     1     -16.157   1.160  -3.765  0.00  0.00    -0.041 A 
ATOM     18  C   UNL     1     -17.582   1.439  -4.147  0.00  0.00    +0.044 C 
ATOM     19  C   UNL     1     -15.147   2.134  -3.932  0.00  0.00    +0.004 A 
ENDROOT
BRANCH  11  20
ATOM     20  O   UNL     1     -19.246  -5.526  -1.976  0.00  0.00    -0.506 OA
ATOM     21  H   UNL     1     -19.641  -5.699  -1.144  0.00  0.00    +0.292 HD
ENDBRANCH  11  20
BRANCH   8  22
ATOM     22  O   UNL     1     -13.761  -4.775  -2.350  0.00  0.00    -0.506 OA
ATOM     23  H   UNL     1     -13.364  -5.144  -3.115  0.00  0.00    +0.292 HD
ENDBRANCH   8  22
TORSDOF 2
ENDMDL
MODEL 4
REMARK VINA RESULT:      -6.7     14.043     16.126
REMARK  Name = min_compound986.pdb
REMARK  4 active torsions:
REMARK  status: ('A' for Active; 'I' for Inactive)
REMARK    1  A    between atoms: _3  and  _16
REMARK    2  A    between atoms: _9  and  _17
REMARK    3  A    between atoms: _14  and  _21
REMARK    4  A    between atoms: _15  and  _18
REMARK                            x       y       z     vdW  Elec       q    Type
REMARK                         _______ _______ _______ _____ _____    ______ ____
ROOT
ATOM      1  C   UNL     1     -17.409  -5.249  -1.874  0.00  0.00    +0.002 A 
ATOM      2  C   UNL     1     -18.034  -4.018  -2.064  0.00  0.00    +0.026 A 
ATOM      3  C   UNL     1     -17.229  -2.899  -2.341  0.00  0.00    +0.050 A 
ATOM      4  N   UNL     1     -17.561  -1.563  -2.511  0.00  0.00    -0.342 N 
ATOM      5  C   UNL     1     -18.835  -1.035  -2.070  0.00  0.00    +0.149 C 
ATOM      6  C   UNL     1     -16.468  -0.808  -2.929  0.00  0.00    +0.061 A 
ATOM      7  C   UNL     1     -16.332   0.569  -3.412  0.00  0.00    +0.051 A 
ATOM      8  C   UNL     1     -17.440   1.391  -3.866  0.00  0.00    +0.127 A 
ATOM      9  C   UNL     1     -17.076   2.712  -4.182  0.00  0.00    +0.049 A 
ATOM     10  C   UNL     1     -15.763   3.214  -4.123  0.00  0.00    +0.049 A 
ATOM     11  C   UNL     1     -14.646   2.446  -3.773  0.00  0.00    +0.125 A 
ATOM     12  C   UNL     1     -14.965   1.086  -3.440  0.00  0.00    +0.029 A 
ATOM     13  C   UNL     1     -13.903   0.215  -3.148  0.00  0.00    +0.013 A 
ATOM     14  C   UNL     1     -14.076  -1.131  -2.843  0.00  0.00    +0.011 A 
ATOM     15  C   UNL     1     -15.370  -1.655  -2.720  0.00  0.00    +0.009 A 
ATOM     16  C   UNL     1     -15.845  -2.982  -2.427  0.00  0.00    +0.011 A 
ATOM     17  C   UNL     1     -15.210  -4.239  -2.224  0.00  0.00    -0.041 A 
ATOM     18  C   UNL     1     -13.719  -4.367  -2.338  0.00  0.00    +0.044 C 
ATOM     19  C   UNL     1     -16.025  -5.360  -1.948  0.00  0.00    +0.004 A 
ENDROOT
BRANCH  11  20
ATOM     20  O   UNL     1     -13.470   2.973  -3.776  0.00  0.00    -0.506 OA
ATOM     21  H   UNL     1     -12.947   2.956  -2.998  0.00  0.00    +0.292 HD
ENDBRANCH  11  20
BRANCH   8  22
ATOM     22  O   UNL     1     -18.660   1.029  -4.044  0.00  0.00    -0.506 OA
ATOM     23  H   UNL     1     -19.282   1.635  -4.396  0.00  0.00    +0.292 HD
ENDBRANCH   8  22
TORSDOF 2
ENDMDL
MODEL 5
REMARK VINA RESULT:      -6.7     12.873     14.713
REMARK  Name = min_compound986.pdb
REMARK  4 active torsions:
REMARK  status: ('A' for Active; 'I' for Inactive)
REMARK    1  A    between atoms: _3  and  _16
REMARK    2  A    between atoms: _9  and  _17
REMARK    3  A    between atoms: _14  and  _21
REMARK    4  A    between atoms: _15  and  _18
REMARK                            x       y       z     vdW  Elec       q    Type
REMARK                         _______ _______ _______ _____ _____    ______ ____
ROOT
ATOM      1  C   UNL     1     -17.252  -1.969  -0.061  0.00  0.00    +0.002 A 
ATOM      2  C   UNL     1     -17.880  -1.129  -0.979  0.00  0.00    +0.026 A 
ATOM      3  C   UNL     1     -17.154  -0.722  -2.112  0.00  0.00    +0.050 A 
ATOM      4  N   UNL     1     -17.492   0.143  -3.143  0.00  0.00    -0.342 N 
ATOM      5  C   UNL     1     -18.592   1.077  -3.021  0.00  0.00    +0.149 C 
ATOM      6  C   UNL     1     -16.534   0.142  -4.153  0.00  0.00    +0.061 A 
ATOM      7  C   UNL     1     -16.502   0.719  -5.500  0.00  0.00    +0.051 A 
ATOM      8  C   UNL     1     -17.674   1.196  -6.214  0.00  0.00    +0.127 A 
ATOM      9  C   UNL     1     -17.379   1.804  -7.447  0.00  0.00    +0.049 A 
ATOM     10  C   UNL     1     -16.087   1.917  -7.993  0.00  0.00    +0.049 A 
ATOM     11  C   UNL     1     -14.934   1.404  -7.388  0.00  0.00    +0.125 A 
ATOM     12  C   UNL     1     -15.181   0.771  -6.123  0.00  0.00    +0.029 A 
ATOM     13  C   UNL     1     -14.098   0.159  -5.473  0.00  0.00    +0.013 A 
ATOM     14  C   UNL     1     -14.211  -0.514  -4.261  0.00  0.00    +0.011 A 
ATOM     15  C   UNL     1     -15.437  -0.520  -3.581  0.00  0.00    +0.009 A 
ATOM     16  C   UNL     1     -15.845  -1.126  -2.341  0.00  0.00    +0.011 A 
ATOM     17  C   UNL     1     -15.205  -1.977  -1.396  0.00  0.00    -0.041 A 
ATOM     18  C   UNL     1     -13.800  -2.452  -1.629  0.00  0.00    +0.044 C 
ATOM     19  C   UNL     1     -15.941  -2.383  -0.260  0.00  0.00    +0.004 A 
ENDROOT
BRANCH  11  20
ATOM     20  O   UNL     1     -13.790   1.520  -7.971  0.00  0.00    -0.506 OA
ATOM     21  H   UNL     1     -13.703   2.067  -8.727  0.00  0.00    +0.292 HD
ENDBRANCH  11  20
BRANCH   8  22
ATOM     22  O   UNL     1     -18.904   1.075  -5.866  0.00  0.00    -0.506 OA
ATOM     23  H   UNL     1     -19.120   0.793  -4.998  0.00  0.00    +0.292 HD
ENDBRANCH   8  22
TORSDOF 2
ENDMDL
MODEL 6
REMARK VINA RESULT:      -6.7     14.038     15.481
REMARK  Name = min_compound986.pdb
REMARK  4 active torsions:
REMARK  status: ('A' for Active; 'I' for Inactive)
REMARK    1  A    between atoms: _3  and  _16
REMARK    2  A    between atoms: _9  and  _17
REMARK    3  A    between atoms: _14  and  _21
REMARK    4  A    between atoms: _15  and  _18
REMARK                            x       y       z     vdW  Elec       q    Type
REMARK                         _______ _______ _______ _____ _____    ______ ____
ROOT
ATOM      1  C   UNL     1     -16.429   2.747  -4.224  0.00  0.00    +0.002 A 
ATOM      2  C   UNL     1     -17.314   1.671  -4.173  0.00  0.00    +0.026 A 
ATOM      3  C   UNL     1     -16.816   0.419  -3.772  0.00  0.00    +0.050 A 
ATOM      4  N   UNL     1     -17.436  -0.819  -3.688  0.00  0.00    -0.342 N 
ATOM      5  C   UNL     1     -18.687  -1.089  -4.365  0.00  0.00    +0.149 C 
ATOM      6  C   UNL     1     -16.615  -1.769  -3.088  0.00  0.00    +0.061 A 
ATOM      7  C   UNL     1     -16.851  -3.135  -2.610  0.00  0.00    +0.051 A 
ATOM      8  C   UNL     1     -18.167  -3.707  -2.384  0.00  0.00    +0.127 A 
ATOM      9  C   UNL     1     -18.141  -5.067  -2.027  0.00  0.00    +0.049 A 
ATOM     10  C   UNL     1     -16.968  -5.824  -1.851  0.00  0.00    +0.049 A 
ATOM     11  C   UNL     1     -15.675  -5.304  -1.975  0.00  0.00    +0.125 A 
ATOM     12  C   UNL     1     -15.646  -3.916  -2.339  0.00  0.00    +0.029 A 
ATOM     13  C   UNL     1     -14.395  -3.283  -2.414  0.00  0.00    +0.013 A 
ATOM     14  C   UNL     1     -14.233  -1.936  -2.724  0.00  0.00    +0.011 A 
ATOM     15  C   UNL     1     -15.349  -1.165  -3.075  0.00  0.00    +0.009 A 
ATOM     16  C   UNL     1     -15.485   0.224  -3.429  0.00  0.00    +0.011 A 
ATOM     17  C   UNL     1     -14.582   1.323  -3.490  0.00  0.00    -0.041 A 
ATOM     18  C   UNL     1     -13.143   1.150  -3.100  0.00  0.00    +0.044 C 
ATOM     19  C   UNL     1     -15.089   2.579  -3.893  0.00  0.00    +0.004 A 
ENDROOT
BRANCH  11  20
ATOM     20  O   UNL     1     -14.650  -6.058  -1.764  0.00  0.00    -0.506 OA
ATOM     21  H   UNL     1     -13.860  -5.689  -1.420  0.00  0.00    +0.292 HD
ENDBRANCH  11  20
BRANCH   8  22
ATOM     22  O   UNL     1     -19.300  -3.103  -2.428  0.00  0.00    -0.506 OA
ATOM     23  H   UNL     1     -19.340  -2.174  -2.311  0.00  0.00    +0.292 HD
ENDBRANCH   8  22
TORSDOF 2
ENDMDL
MODEL 7
REMARK VINA RESULT:      -6.6      2.189      2.677
REMARK  Name = min_compound986.pdb
REMARK  4 active torsions:
REMARK  status: ('A' for Active; 'I' for Inactive)
REMARK    1  A    between atoms: _3  and  _16
REMARK    2  A    between atoms: _9  and  _17
REMARK    3  A    between atoms: _14  and  _21
REMARK    4  A    between atoms: _15  and  _18
REMARK                            x       y       z     vdW  Elec       q    Type
REMARK                         _______ _______ _______ _____ _____    ______ ____
ROOT
ATOM      1  C   UNL     1     -16.983   6.241 -18.116  0.00  0.00    +0.002 A 
ATOM      2  C   UNL     1     -16.103   5.425 -18.826  0.00  0.00    +0.026 A 
ATOM      3  C   UNL     1     -15.107   4.740 -18.108  0.00  0.00    +0.050 A 
ATOM      4  N   UNL     1     -14.074   3.924 -18.546  0.00  0.00    -0.342 N 
ATOM      5  C   UNL     1     -13.639   3.923 -19.926  0.00  0.00    +0.149 C 
ATOM      6  C   UNL     1     -13.409   3.318 -17.483  0.00  0.00    +0.061 A 
ATOM      7  C   UNL     1     -12.399   2.258 -17.411  0.00  0.00    +0.051 A 
ATOM      8  C   UNL     1     -12.081   1.354 -18.503  0.00  0.00    +0.127 A 
ATOM      9  C   UNL     1     -11.005   0.491 -18.231  0.00  0.00    +0.049 A 
ATOM     10  C   UNL     1     -10.307   0.446 -17.010  0.00  0.00    +0.049 A 
ATOM     11  C   UNL     1     -10.623   1.234 -15.898  0.00  0.00    +0.125 A 
ATOM     12  C   UNL     1     -11.718   2.135 -16.124  0.00  0.00    +0.029 A 
ATOM     13  C   UNL     1     -12.159   2.915 -15.044  0.00  0.00    +0.013 A 
ATOM     14  C   UNL     1     -13.229   3.801 -15.123  0.00  0.00    +0.011 A 
ATOM     15  C   UNL     1     -13.861   4.018 -16.354  0.00  0.00    +0.009 A 
ATOM     16  C   UNL     1     -14.973   4.851 -16.730  0.00  0.00    +0.011 A 
ATOM     17  C   UNL     1     -15.868   5.692 -16.010  0.00  0.00    -0.041 A 
ATOM     18  C   UNL     1     -15.767   5.812 -14.518  0.00  0.00    +0.044 C 
ATOM     19  C   UNL     1     -16.869   6.377 -16.737  0.00  0.00    +0.004 A 
ENDROOT
BRANCH  11  20
ATOM     20  O   UNL     1      -9.954   1.108 -14.803  0.00  0.00    -0.506 OA
ATOM     21  H   UNL     1      -9.812   1.853 -14.253  0.00  0.00    +0.292 HD
ENDBRANCH  11  20
BRANCH   8  22
ATOM     22  O   UNL     1     -12.695   1.239 -19.626  0.00  0.00    -0.506 OA
ATOM     23  H   UNL     1     -13.200   0.470 -19.807  0.00  0.00    +0.292 HD
ENDBRANCH   8  22
TORSDOF 2
ENDMDL
MODEL 8
REMARK VINA RESULT:      -6.6     12.890     14.306
REMARK  Name = min_compound986.pdb
REMARK  4 active torsions:
REMARK  status: ('A' for Active; 'I' for Inactive)
REMARK    1  A    between atoms: _3  and  _16
REMARK    2  A    between atoms: _9  and  _17
REMARK    3  A    between atoms: _14  and  _21
REMARK    4  A    between atoms: _15  and  _18
REMARK                            x       y       z     vdW  Elec       q    Type
REMARK                         _______ _______ _______ _____ _____    ______ ____
ROOT
ATOM      1  C   UNL     1     -17.700   1.911  -8.091  0.00  0.00    +0.002 A 
ATOM      2  C   UNL     1     -18.380   1.364  -7.003  0.00  0.00    +0.026 A 
ATOM      3  C   UNL     1     -17.626   0.725  -6.003  0.00  0.00    +0.050 A 
ATOM      4  N   UNL     1     -18.026   0.050  -4.860  0.00  0.00    -0.342 N 
ATOM      5  C   UNL     1     -19.387  -0.416  -4.689  0.00  0.00    +0.149 C 
ATOM      6  C   UNL     1     -16.942  -0.296  -4.057  0.00  0.00    +0.061 A 
ATOM      7  C   UNL     1     -16.837  -0.837  -2.699  0.00  0.00    +0.051 A 
ATOM      8  C   UNL     1     -17.923  -0.847  -1.735  0.00  0.00    +0.127 A 
ATOM      9  C   UNL     1     -17.614  -1.515  -0.537  0.00  0.00    +0.049 A 
ATOM     10  C   UNL     1     -16.364  -2.091  -0.244  0.00  0.00    +0.049 A 
ATOM     11  C   UNL     1     -15.259  -2.040  -1.100  0.00  0.00    +0.125 A 
ATOM     12  C   UNL     1     -15.523  -1.367  -2.341  0.00  0.00    +0.029 A 
ATOM     13  C   UNL     1     -14.455  -1.198  -3.236  0.00  0.00    +0.013 A 
ATOM     14  C   UNL     1     -14.571  -0.536  -4.455  0.00  0.00    +0.011 A 
ATOM     15  C   UNL     1     -15.827  -0.085  -4.882  0.00  0.00    +0.009 A 
ATOM     16  C   UNL     1     -16.243   0.622  -6.065  0.00  0.00    +0.011 A 
ATOM     17  C   UNL     1     -15.554   1.174  -7.182  0.00  0.00    -0.041 A 
ATOM     18  C   UNL     1     -14.057   1.103  -7.266  0.00  0.00    +0.044 C 
ATOM     19  C   UNL     1     -16.316   1.816  -8.184  0.00  0.00    +0.004 A 
ENDROOT
BRANCH  11  20
ATOM     20  O   UNL     1     -14.137  -2.565  -0.743  0.00  0.00    -0.506 OA
ATOM     21  H   UNL     1     -13.588  -2.978  -1.381  0.00  0.00    +0.292 HD
ENDBRANCH  11  20
BRANCH   8  22
ATOM     22  O   UNL     1     -19.073  -0.285  -1.848  0.00  0.00    -0.506 OA
ATOM     23  H   UNL     1     -19.238   0.535  -1.426  0.00  0.00    +0.292 HD
ENDBRANCH   8  22
TORSDOF 2
ENDMDL
MODEL 9
REMARK VINA RESULT:      -6.4      2.971      5.667
REMARK  Name = min_compound986.pdb
REMARK  4 active torsions:
REMARK  status: ('A' for Active; 'I' for Inactive)
REMARK    1  A    between atoms: _3  and  _16
REMARK    2  A    between atoms: _9  and  _17
REMARK    3  A    between atoms: _14  and  _21
REMARK    4  A    between atoms: _15  and  _18
REMARK                            x       y       z     vdW  Elec       q    Type
REMARK                         _______ _______ _______ _____ _____    ______ ____
ROOT
ATOM      1  C   UNL     1     -10.229   3.192 -17.429  0.00  0.00    +0.002 A 
ATOM      2  C   UNL     1     -11.090   4.273 -17.246  0.00  0.00    +0.026 A 
ATOM      3  C   UNL     1     -12.387   4.015 -16.769  0.00  0.00    +0.050 A 
ATOM      4  N   UNL     1     -13.460   4.867 -16.553  0.00  0.00    -0.342 N 
ATOM      5  C   UNL     1     -13.510   6.189 -17.141  0.00  0.00    +0.149 C 
ATOM      6  C   UNL     1     -14.517   4.219 -15.920  0.00  0.00    +0.061 A 
ATOM      7  C   UNL     1     -15.767   4.695 -15.321  0.00  0.00    +0.051 A 
ATOM      8  C   UNL     1     -16.035   6.082 -14.981  0.00  0.00    +0.127 A 
ATOM      9  C   UNL     1     -17.343   6.310 -14.517  0.00  0.00    +0.049 A 
ATOM     10  C   UNL     1     -18.313   5.307 -14.339  0.00  0.00    +0.049 A 
ATOM     11  C   UNL     1     -18.084   3.946 -14.571  0.00  0.00    +0.125 A 
ATOM     12  C   UNL     1     -16.761   3.659 -15.048  0.00  0.00    +0.029 A 
ATOM     13  C   UNL     1     -16.409   2.313 -15.239  0.00  0.00    +0.013 A 
ATOM     14  C   UNL     1     -15.151   1.901 -15.665  0.00  0.00    +0.011 A 
ATOM     15  C   UNL     1     -14.191   2.858 -16.021  0.00  0.00    +0.009 A 
ATOM     16  C   UNL     1     -12.832   2.731 -16.480  0.00  0.00    +0.011 A 
ATOM     17  C   UNL     1     -11.952   1.630 -16.676  0.00  0.00    -0.041 A 
ATOM     18  C   UNL     1     -12.393   0.233 -16.347  0.00  0.00    +0.044 C 
ATOM     19  C   UNL     1     -10.649   1.896 -17.154  0.00  0.00    +0.004 A 
ENDROOT
BRANCH  11  20
ATOM     20  O   UNL     1     -19.018   3.085 -14.351  0.00  0.00    -0.506 OA
ATOM     21  H   UNL     1     -18.801   2.229 -14.037  0.00  0.00    +0.292 HD
ENDBRANCH  11  20
BRANCH   8  22
ATOM     22  O   UNL     1     -15.213   7.068 -15.017  0.00  0.00    -0.506 OA
ATOM     23  H   UNL     1     -15.508   7.932 -14.805  0.00  0.00    +0.292 HD
ENDBRANCH   8  22
TORSDOF 2
ENDMDL
