MODEL 1
REMARK VINA RESULT:      -5.5      0.000      0.000
REMARK  Name = min_compound4.pdb
REMARK  5 active torsions:
REMARK  status: ('A' for Active; 'I' for Inactive)
REMARK    1  A    between atoms: _3  and  _7
REMARK    2  A    between atoms: _7  and  _8
REMARK    3  A    between atoms: _8  and  _9
REMARK    4  A    between atoms: _9  and  _10
REMARK    5  A    between atoms: _10  and  _11
REMARK                            x       y       z     vdW  Elec       q    Type
REMARK                         _______ _______ _______ _____ _____    ______ ____
ROOT
ATOM      1  N   UNL     1     -12.094  -0.343 -16.952  0.00  0.00    -0.263 NA
ATOM      2  C   UNL     1     -10.944  -0.939 -16.579  0.00  0.00    +0.111 A 
ATOM      3  C   UNL     1      -9.947  -0.299 -15.863  0.00  0.00    +0.020 A 
ATOM      4  C   UNL     1     -10.137   1.034 -15.505  0.00  0.00    +0.006 A 
ATOM      5  C   UNL     1     -11.316   1.692 -15.866  0.00  0.00    -0.029 A 
ATOM      6  C   UNL     1     -12.250   0.951 -16.589  0.00  0.00    +0.114 A 
ENDROOT
BRANCH   5   7
ATOM      7  C   UNL     1     -11.624   3.133 -15.544  0.00  0.00    +0.036 C 
BRANCH   7   8
ATOM      8  C   UNL     1     -10.442   4.109 -15.562  0.00  0.00    +0.005 C 
BRANCH   8   9
ATOM      9  C   UNL     1     -10.428   4.939 -16.848  0.00  0.00    +0.000 C 
BRANCH   9  10
ATOM     10  C   UNL     1     -11.843   5.152 -17.388  0.00  0.00    -0.003 C 
ATOM     11  C   UNL     1     -12.066   6.596 -17.809  0.00  0.00    +0.004 C 
ENDBRANCH   9  10
ENDBRANCH   8   9
ENDBRANCH   7   8
ENDBRANCH   5   7
TORSDOF 4
ENDMDL
MODEL 2
REMARK VINA RESULT:      -5.4      1.591      2.459
REMARK  Name = min_compound4.pdb
REMARK  5 active torsions:
REMARK  status: ('A' for Active; 'I' for Inactive)
REMARK    1  A    between atoms: _3  and  _7
REMARK    2  A    between atoms: _7  and  _8
REMARK    3  A    between atoms: _8  and  _9
REMARK    4  A    between atoms: _9  and  _10
REMARK    5  A    between atoms: _10  and  _11
REMARK                            x       y       z     vdW  Elec       q    Type
REMARK                         _______ _______ _______ _____ _____    ______ ____
ROOT
ATOM      1  N   UNL     1      -9.229   0.239 -17.171  0.00  0.00    -0.263 NA
ATOM      2  C   UNL     1      -9.648  -0.812 -16.439  0.00  0.00    +0.111 A 
ATOM      3  C   UNL     1     -10.978  -1.062 -16.148  0.00  0.00    +0.020 A 
ATOM      4  C   UNL     1     -11.942  -0.182 -16.636  0.00  0.00    +0.006 A 
ATOM      5  C   UNL     1     -11.555   0.920 -17.404  0.00  0.00    -0.029 A 
ATOM      6  C   UNL     1     -10.188   1.075 -17.631  0.00  0.00    +0.114 A 
ENDROOT
BRANCH   5   7
ATOM      7  C   UNL     1     -12.507   1.942 -17.973  0.00  0.00    +0.036 C 
BRANCH   7   8
ATOM      8  C   UNL     1     -13.348   2.734 -16.966  0.00  0.00    +0.005 C 
BRANCH   8   9
ATOM      9  C   UNL     1     -12.461   3.466 -15.956  0.00  0.00    +0.000 C 
BRANCH   9  10
ATOM     10  C   UNL     1     -11.536   4.466 -16.651  0.00  0.00    -0.003 C 
ATOM     11  C   UNL     1     -10.132   4.423 -16.070  0.00  0.00    +0.004 C 
ENDBRANCH   9  10
ENDBRANCH   8   9
ENDBRANCH   7   8
ENDBRANCH   5   7
TORSDOF 4
ENDMDL
MODEL 3
REMARK VINA RESULT:      -5.2     10.891     11.970
REMARK  Name = min_compound4.pdb
REMARK  5 active torsions:
REMARK  status: ('A' for Active; 'I' for Inactive)
REMARK    1  A    between atoms: _3  and  _7
REMARK    2  A    between atoms: _7  and  _8
REMARK    3  A    between atoms: _8  and  _9
REMARK    4  A    between atoms: _9  and  _10
REMARK    5  A    between atoms: _10  and  _11
REMARK                            x       y       z     vdW  Elec       q    Type
REMARK                         _______ _______ _______ _____ _____    ______ ____
ROOT
ATOM      1  N   UNL     1     -17.256  -0.184  -7.481  0.00  0.00    -0.263 NA
ATOM      2  C   UNL     1     -17.102   0.974  -8.152  0.00  0.00    +0.111 A 
ATOM      3  C   UNL     1     -15.952   1.743  -8.099  0.00  0.00    +0.020 A 
ATOM      4  C   UNL     1     -14.892   1.301  -7.312  0.00  0.00    +0.006 A 
ATOM      5  C   UNL     1     -15.003   0.102  -6.601  0.00  0.00    -0.029 A 
ATOM      6  C   UNL     1     -16.208  -0.589  -6.725  0.00  0.00    +0.114 A 
ENDROOT
BRANCH   5   7
ATOM      7  C   UNL     1     -13.927  -0.467  -5.711  0.00  0.00    +0.036 C 
BRANCH   7   8
ATOM      8  C   UNL     1     -14.364  -0.935  -4.318  0.00  0.00    +0.005 C 
BRANCH   8   9
ATOM      9  C   UNL     1     -14.580   0.253  -3.377  0.00  0.00    +0.000 C 
BRANCH   9  10
ATOM     10  C   UNL     1     -13.333   1.134  -3.299  0.00  0.00    -0.003 C 
ATOM     11  C   UNL     1     -13.655   2.584  -3.625  0.00  0.00    +0.004 C 
ENDBRANCH   9  10
ENDBRANCH   8   9
ENDBRANCH   7   8
ENDBRANCH   5   7
TORSDOF 4
ENDMDL
MODEL 4
REMARK VINA RESULT:      -5.1      1.711      2.607
REMARK  Name = min_compound4.pdb
REMARK  5 active torsions:
REMARK  status: ('A' for Active; 'I' for Inactive)
REMARK    1  A    between atoms: _3  and  _7
REMARK    2  A    between atoms: _7  and  _8
REMARK    3  A    between atoms: _8  and  _9
REMARK    4  A    between atoms: _9  and  _10
REMARK    5  A    between atoms: _10  and  _11
REMARK                            x       y       z     vdW  Elec       q    Type
REMARK                         _______ _______ _______ _____ _____    ______ ____
ROOT
ATOM      1  N   UNL     1     -10.721   0.048 -17.945  0.00  0.00    -0.263 NA
ATOM      2  C   UNL     1     -10.313  -0.819 -16.997  0.00  0.00    +0.111 A 
ATOM      3  C   UNL     1     -10.020  -0.450 -15.696  0.00  0.00    +0.020 A 
ATOM      4  C   UNL     1     -10.154   0.890 -15.339  0.00  0.00    +0.006 A 
ATOM      5  C   UNL     1     -10.580   1.825 -16.286  0.00  0.00    -0.029 A 
ATOM      6  C   UNL     1     -10.843   1.342 -17.567  0.00  0.00    +0.114 A 
ENDROOT
BRANCH   5   7
ATOM      7  C   UNL     1     -10.749   3.299 -16.016  0.00  0.00    +0.036 C 
BRANCH   7   8
ATOM      8  C   UNL     1     -12.141   3.889 -16.270  0.00  0.00    +0.005 C 
BRANCH   8   9
ATOM      9  C   UNL     1     -13.194   3.230 -15.377  0.00  0.00    +0.000 C 
BRANCH   9  10
ATOM     10  C   UNL     1     -14.182   2.402 -16.199  0.00  0.00    -0.003 C 
ATOM     11  C   UNL     1     -15.541   2.322 -15.523  0.00  0.00    +0.004 C 
ENDBRANCH   9  10
ENDBRANCH   8   9
ENDBRANCH   7   8
ENDBRANCH   5   7
TORSDOF 4
ENDMDL
MODEL 5
REMARK VINA RESULT:      -4.9      2.335      5.127
REMARK  Name = min_compound4.pdb
REMARK  5 active torsions:
REMARK  status: ('A' for Active; 'I' for Inactive)
REMARK    1  A    between atoms: _3  and  _7
REMARK    2  A    between atoms: _7  and  _8
REMARK    3  A    between atoms: _8  and  _9
REMARK    4  A    between atoms: _9  and  _10
REMARK    5  A    between atoms: _10  and  _11
REMARK                            x       y       z     vdW  Elec       q    Type
REMARK                         _______ _______ _______ _____ _____    ______ ____
ROOT
ATOM      1  N   UNL     1     -12.595   5.801 -17.515  0.00  0.00    -0.263 NA
ATOM      2  C   UNL     1     -13.806   5.480 -17.019  0.00  0.00    +0.111 A 
ATOM      3  C   UNL     1     -14.023   4.426 -16.148  0.00  0.00    +0.020 A 
ATOM      4  C   UNL     1     -12.932   3.651 -15.758  0.00  0.00    +0.006 A 
ATOM      5  C   UNL     1     -11.656   3.950 -16.242  0.00  0.00    -0.029 A 
ATOM      6  C   UNL     1     -11.556   5.031 -17.117  0.00  0.00    +0.114 A 
ENDROOT
BRANCH   5   7
ATOM      7  C   UNL     1     -10.408   3.175 -15.899  0.00  0.00    +0.036 C 
BRANCH   7   8
ATOM      8  C   UNL     1     -10.505   1.647 -15.971  0.00  0.00    +0.005 C 
BRANCH   8   9
ATOM      9  C   UNL     1      -9.918   1.115 -17.280  0.00  0.00    +0.000 C 
BRANCH   9  10
ATOM     10  C   UNL     1      -9.855  -0.413 -17.281  0.00  0.00    -0.003 C 
ATOM     11  C   UNL     1      -9.617  -0.962 -15.884  0.00  0.00    +0.004 C 
ENDBRANCH   9  10
ENDBRANCH   8   9
ENDBRANCH   7   8
ENDBRANCH   5   7
TORSDOF 4
ENDMDL
MODEL 6
REMARK VINA RESULT:      -4.8     11.241     12.105
REMARK  Name = min_compound4.pdb
REMARK  5 active torsions:
REMARK  status: ('A' for Active; 'I' for Inactive)
REMARK    1  A    between atoms: _3  and  _7
REMARK    2  A    between atoms: _7  and  _8
REMARK    3  A    between atoms: _8  and  _9
REMARK    4  A    between atoms: _9  and  _10
REMARK    5  A    between atoms: _10  and  _11
REMARK                            x       y       z     vdW  Elec       q    Type
REMARK                         _______ _______ _______ _____ _____    ______ ____
ROOT
ATOM      1  N   UNL     1     -14.767  -1.641  -3.591  0.00  0.00    -0.263 NA
ATOM      2  C   UNL     1     -14.354  -0.689  -2.731  0.00  0.00    +0.111 A 
ATOM      3  C   UNL     1     -13.863   0.542  -3.129  0.00  0.00    +0.020 A 
ATOM      4  C   UNL     1     -13.790   0.819  -4.492  0.00  0.00    +0.006 A 
ATOM      5  C   UNL     1     -14.211  -0.136  -5.422  0.00  0.00    -0.029 A 
ATOM      6  C   UNL     1     -14.684  -1.343  -4.908  0.00  0.00    +0.114 A 
ENDROOT
BRANCH   5   7
ATOM      7  C   UNL     1     -14.167   0.049  -6.918  0.00  0.00    +0.036 C 
BRANCH   7   8
ATOM      8  C   UNL     1     -14.659   1.396  -7.459  0.00  0.00    +0.005 C 
BRANCH   8   9
ATOM      9  C   UNL     1     -16.138   1.331  -7.848  0.00  0.00    +0.000 C 
BRANCH   9  10
ATOM     10  C   UNL     1     -16.590  -0.112  -8.073  0.00  0.00    -0.003 C 
ATOM     11  C   UNL     1     -17.791  -0.462  -7.207  0.00  0.00    +0.004 C 
ENDBRANCH   9  10
ENDBRANCH   8   9
ENDBRANCH   7   8
ENDBRANCH   5   7
TORSDOF 4
ENDMDL
MODEL 7
REMARK VINA RESULT:      -4.8     10.904     11.689
REMARK  Name = min_compound4.pdb
REMARK  5 active torsions:
REMARK  status: ('A' for Active; 'I' for Inactive)
REMARK    1  A    between atoms: _3  and  _7
REMARK    2  A    between atoms: _7  and  _8
REMARK    3  A    between atoms: _8  and  _9
REMARK    4  A    between atoms: _9  and  _10
REMARK    5  A    between atoms: _10  and  _11
REMARK                            x       y       z     vdW  Elec       q    Type
REMARK                         _______ _______ _______ _____ _____    ______ ____
ROOT
ATOM      1  N   UNL     1     -14.526  -1.380  -3.600  0.00  0.00    -0.263 NA
ATOM      2  C   UNL     1     -14.050  -0.385  -2.825  0.00  0.00    +0.111 A 
ATOM      3  C   UNL     1     -13.717   0.869  -3.306  0.00  0.00    +0.020 A 
ATOM      4  C   UNL     1     -13.883   1.125  -4.666  0.00  0.00    +0.006 A 
ATOM      5  C   UNL     1     -14.379   0.126  -5.508  0.00  0.00    -0.029 A 
ATOM      6  C   UNL     1     -14.677  -1.100  -4.915  0.00  0.00    +0.114 A 
ENDROOT
BRANCH   5   7
ATOM      7  C   UNL     1     -14.588   0.286  -6.993  0.00  0.00    +0.036 C 
BRANCH   7   8
ATOM      8  C   UNL     1     -15.867  -0.325  -7.577  0.00  0.00    +0.005 C 
BRANCH   8   9
ATOM      9  C   UNL     1     -16.733   0.742  -8.251  0.00  0.00    +0.000 C 
BRANCH   9  10
ATOM     10  C   UNL     1     -16.097   2.128  -8.137  0.00  0.00    -0.003 C 
ATOM     11  C   UNL     1     -16.250   2.920  -9.426  0.00  0.00    +0.004 C 
ENDBRANCH   9  10
ENDBRANCH   8   9
ENDBRANCH   7   8
ENDBRANCH   5   7
TORSDOF 4
ENDMDL
MODEL 8
REMARK VINA RESULT:      -4.8      2.024      5.019
REMARK  Name = min_compound4.pdb
REMARK  5 active torsions:
REMARK  status: ('A' for Active; 'I' for Inactive)
REMARK    1  A    between atoms: _3  and  _7
REMARK    2  A    between atoms: _7  and  _8
REMARK    3  A    between atoms: _8  and  _9
REMARK    4  A    between atoms: _9  and  _10
REMARK    5  A    between atoms: _10  and  _11
REMARK                            x       y       z     vdW  Elec       q    Type
REMARK                         _______ _______ _______ _____ _____    ______ ____
ROOT
ATOM      1  N   UNL     1     -13.028   4.088 -19.152  0.00  0.00    -0.263 NA
ATOM      2  C   UNL     1     -12.477   5.165 -18.558  0.00  0.00    +0.111 A 
ATOM      3  C   UNL     1     -11.899   5.135 -17.300  0.00  0.00    +0.020 A 
ATOM      4  C   UNL     1     -11.882   3.928 -16.606  0.00  0.00    +0.006 A 
ATOM      5  C   UNL     1     -12.438   2.782 -17.183  0.00  0.00    -0.029 A 
ATOM      6  C   UNL     1     -12.996   2.930 -18.453  0.00  0.00    +0.114 A 
ENDROOT
BRANCH   5   7
ATOM      7  C   UNL     1     -12.486   1.428 -16.521  0.00  0.00    +0.036 C 
BRANCH   7   8
ATOM      8  C   UNL     1     -11.853   0.263 -17.291  0.00  0.00    +0.005 C 
BRANCH   8   9
ATOM      9  C   UNL     1     -11.280  -0.786 -16.336  0.00  0.00    +0.000 C 
BRANCH   9  10
ATOM     10  C   UNL     1      -9.752  -0.800 -16.376  0.00  0.00    -0.003 C 
ATOM     11  C   UNL     1      -9.212   0.207 -17.379  0.00  0.00    +0.004 C 
ENDBRANCH   9  10
ENDBRANCH   8   9
ENDBRANCH   7   8
ENDBRANCH   5   7
TORSDOF 4
ENDMDL
MODEL 9
REMARK VINA RESULT:      -4.7      2.247      2.912
REMARK  Name = min_compound4.pdb
REMARK  5 active torsions:
REMARK  status: ('A' for Active; 'I' for Inactive)
REMARK    1  A    between atoms: _3  and  _7
REMARK    2  A    between atoms: _7  and  _8
REMARK    3  A    between atoms: _8  and  _9
REMARK    4  A    between atoms: _9  and  _10
REMARK    5  A    between atoms: _10  and  _11
REMARK                            x       y       z     vdW  Elec       q    Type
REMARK                         _______ _______ _______ _____ _____    ______ ____
ROOT
ATOM      1  N   UNL     1     -11.882  -0.565 -16.888  0.00  0.00    -0.263 NA
ATOM      2  C   UNL     1     -10.707  -0.700 -16.242  0.00  0.00    +0.111 A 
ATOM      3  C   UNL     1     -10.051   0.346 -15.617  0.00  0.00    +0.020 A 
ATOM      4  C   UNL     1     -10.633   1.611 -15.651  0.00  0.00    +0.006 A 
ATOM      5  C   UNL     1     -11.854   1.799 -16.305  0.00  0.00    -0.029 A 
ATOM      6  C   UNL     1     -12.423   0.676 -16.904  0.00  0.00    +0.114 A 
ENDROOT
BRANCH   5   7
ATOM      7  C   UNL     1     -12.569   3.123 -16.416  0.00  0.00    +0.036 C 
BRANCH   7   8
ATOM      8  C   UNL     1     -13.285   3.625 -15.157  0.00  0.00    +0.005 C 
BRANCH   8   9
ATOM      9  C   UNL     1     -14.799   3.690 -15.368  0.00  0.00    +0.000 C 
BRANCH   9  10
ATOM     10  C   UNL     1     -15.447   4.716 -14.438  0.00  0.00    -0.003 C 
ATOM     11  C   UNL     1     -15.023   4.505 -12.994  0.00  0.00    +0.004 C 
ENDBRANCH   9  10
ENDBRANCH   8   9
ENDBRANCH   7   8
ENDBRANCH   5   7
TORSDOF 4
ENDMDL
