MODEL 1
REMARK VINA RESULT:      -6.4      0.000      0.000
REMARK  Name = min_compound916.pdb
REMARK  6 active torsions:
REMARK  status: ('A' for Active; 'I' for Inactive)
REMARK    1  A    between atoms: _6  and  _7
REMARK    2  A    between atoms: _7  and  _15
REMARK    3  A    between atoms: _8  and  _9
REMARK    4  A    between atoms: _8  and  _18
REMARK    5  A    between atoms: _15  and  _16
REMARK    6  A    between atoms: _17  and  _18
REMARK                            x       y       z     vdW  Elec       q    Type
REMARK                         _______ _______ _______ _____ _____    ______ ____
ROOT
ATOM      1  C   UNL     1     -14.164   3.309 -16.122  0.00  0.00    -0.019 C 
ATOM      2  C   UNL     1     -14.844   2.201 -15.778  0.00  0.00    -0.019 C 
ENDROOT
BRANCH   1   3
ATOM      3  C   UNL     1     -12.832   3.325 -16.809  0.00  0.00    +0.102 C 
BRANCH   3   4
ATOM      4  S   UNL     1     -12.842   2.097 -18.145  0.00  0.00    -0.102 S 
BRANCH   4   8
ATOM      5  C   UNL     1      -9.722  -0.728 -16.505  0.00  0.00    +0.020 A 
ATOM      6  C   UNL     1      -9.424   0.381 -17.277  0.00  0.00    +0.112 A 
ATOM      7  N   UNL     1     -10.356   1.221 -17.775  0.00  0.00    -0.249 NA
ATOM      8  C   UNL     1     -11.649   0.958 -17.486  0.00  0.00    +0.097 A 
ATOM      9  C   UNL     1     -12.038  -0.130 -16.713  0.00  0.00    +0.035 A 
ATOM     10  C   UNL     1     -11.057  -0.987 -16.221  0.00  0.00    +0.004 A 
ENDBRANCH   4   8
ENDBRANCH   3   4
ENDBRANCH   1   3
BRANCH   2  11
ATOM     11  C   UNL     1     -16.187   2.235 -15.112  0.00  0.00    +0.102 C 
BRANCH  11  12
ATOM     12  S   UNL     1     -16.652   3.950 -14.756  0.00  0.00    -0.102 S 
BRANCH  12  13
ATOM     13  C   UNL     1     -16.388   3.899 -12.998  0.00  0.00    +0.097 A 
ATOM     14  N   UNL     1     -15.382   4.658 -12.505  0.00  0.00    -0.249 NA
ATOM     15  C   UNL     1     -15.180   4.620 -11.171  0.00  0.00    +0.112 A 
ATOM     16  C   UNL     1     -15.950   3.873 -10.296  0.00  0.00    +0.020 A 
ATOM     17  C   UNL     1     -16.982   3.107 -10.822  0.00  0.00    +0.004 A 
ATOM     18  C   UNL     1     -17.203   3.112 -12.197  0.00  0.00    +0.035 A 
ENDBRANCH  12  13
ENDBRANCH  11  12
ENDBRANCH   2  11
TORSDOF 6
ENDMDL
MODEL 2
REMARK VINA RESULT:      -6.3      0.862      7.340
REMARK  Name = min_compound916.pdb
REMARK  6 active torsions:
REMARK  status: ('A' for Active; 'I' for Inactive)
REMARK    1  A    between atoms: _6  and  _7
REMARK    2  A    between atoms: _7  and  _15
REMARK    3  A    between atoms: _8  and  _9
REMARK    4  A    between atoms: _8  and  _18
REMARK    5  A    between atoms: _15  and  _16
REMARK    6  A    between atoms: _17  and  _18
REMARK                            x       y       z     vdW  Elec       q    Type
REMARK                         _______ _______ _______ _____ _____    ______ ____
ROOT
ATOM      1  C   UNL     1     -14.760   2.528 -15.663  0.00  0.00    -0.019 C 
ATOM      2  C   UNL     1     -13.913   3.567 -15.570  0.00  0.00    -0.019 C 
ENDROOT
BRANCH   1   3
ATOM      3  C   UNL     1     -16.162   2.508 -15.134  0.00  0.00    +0.102 C 
BRANCH   3   4
ATOM      4  S   UNL     1     -16.621   4.185 -14.613  0.00  0.00    -0.102 S 
BRANCH   4   8
ATOM      5  C   UNL     1     -15.980   3.813 -10.158  0.00  0.00    +0.020 A 
ATOM      6  C   UNL     1     -15.226   4.635 -10.976  0.00  0.00    +0.112 A 
ATOM      7  N   UNL     1     -15.410   4.741 -12.309  0.00  0.00    -0.249 NA
ATOM      8  C   UNL     1     -16.399   4.004 -12.860  0.00  0.00    +0.097 A 
ATOM      9  C   UNL     1     -17.209   3.157 -12.113  0.00  0.00    +0.035 A 
ATOM     10  C   UNL     1     -16.990   3.058 -10.742  0.00  0.00    +0.004 A 
ENDBRANCH   4   8
ENDBRANCH   3   4
ENDBRANCH   1   3
BRANCH   2  11
ATOM     11  C   UNL     1     -12.524   3.548 -16.136  0.00  0.00    +0.102 C 
BRANCH  11  12
ATOM     12  S   UNL     1     -12.483   2.516 -17.625  0.00  0.00    -0.102 S 
BRANCH  12  13
ATOM     13  C   UNL     1     -11.373   1.270 -17.011  0.00  0.00    +0.097 A 
ATOM     14  N   UNL     1     -10.909   1.427 -15.750  0.00  0.00    -0.249 NA
ATOM     15  C   UNL     1     -10.065   0.483 -15.283  0.00  0.00    +0.112 A 
ATOM     16  C   UNL     1      -9.674  -0.628 -16.010  0.00  0.00    +0.020 A 
ATOM     17  C   UNL     1     -10.168  -0.775 -17.300  0.00  0.00    +0.004 A 
ATOM     18  C   UNL     1     -11.026   0.193 -17.815  0.00  0.00    +0.035 A 
ENDBRANCH  12  13
ENDBRANCH  11  12
ENDBRANCH   2  11
TORSDOF 6
ENDMDL
MODEL 3
REMARK VINA RESULT:      -6.3      1.005      7.434
REMARK  Name = min_compound916.pdb
REMARK  6 active torsions:
REMARK  status: ('A' for Active; 'I' for Inactive)
REMARK    1  A    between atoms: _6  and  _7
REMARK    2  A    between atoms: _7  and  _15
REMARK    3  A    between atoms: _8  and  _9
REMARK    4  A    between atoms: _8  and  _18
REMARK    5  A    between atoms: _15  and  _16
REMARK    6  A    between atoms: _17  and  _18
REMARK                            x       y       z     vdW  Elec       q    Type
REMARK                         _______ _______ _______ _____ _____    ______ ____
ROOT
ATOM      1  C   UNL     1     -14.935   2.310 -15.607  0.00  0.00    -0.019 C 
ATOM      2  C   UNL     1     -14.214   3.438 -15.724  0.00  0.00    -0.019 C 
ENDROOT
BRANCH   1   3
ATOM      3  C   UNL     1     -16.313   2.224 -15.025  0.00  0.00    +0.102 C 
BRANCH   3   4
ATOM      4  S   UNL     1     -16.889   3.897 -14.621  0.00  0.00    -0.102 S 
BRANCH   4   8
ATOM      5  C   UNL     1     -15.980   3.855 -10.197  0.00  0.00    +0.020 A 
ATOM      6  C   UNL     1     -17.007   3.131 -10.777  0.00  0.00    +0.112 A 
ATOM      7  N   UNL     1     -17.286   3.149 -12.097  0.00  0.00    -0.249 NA
ATOM      8  C   UNL     1     -16.501   3.914 -12.888  0.00  0.00    +0.097 A 
ATOM      9  C   UNL     1     -15.444   4.668 -12.391  0.00  0.00    +0.035 A 
ATOM     10  C   UNL     1     -15.186   4.640 -11.023  0.00  0.00    +0.004 A 
ENDBRANCH   4   8
ENDBRANCH   3   4
ENDBRANCH   1   3
BRANCH   2  11
ATOM     11  C   UNL     1     -12.845   3.479 -16.337  0.00  0.00    +0.102 C 
BRANCH  11  12
ATOM     12  S   UNL     1     -12.778   2.362 -17.761  0.00  0.00    -0.102 S 
BRANCH  12  13
ATOM     13  C   UNL     1     -11.560   1.238 -17.116  0.00  0.00    +0.097 A 
ATOM     14  N   UNL     1     -11.219   0.187 -17.895  0.00  0.00    -0.249 NA
ATOM     15  C   UNL     1     -10.295  -0.668 -17.407  0.00  0.00    +0.112 A 
ATOM     16  C   UNL     1      -9.676  -0.513 -16.179  0.00  0.00    +0.020 A 
ATOM     17  C   UNL     1     -10.035   0.578 -15.396  0.00  0.00    +0.004 A 
ATOM     18  C   UNL     1     -10.999   1.466 -15.867  0.00  0.00    +0.035 A 
ENDBRANCH  12  13
ENDBRANCH  11  12
ENDBRANCH   2  11
TORSDOF 6
ENDMDL
MODEL 4
REMARK VINA RESULT:      -6.2      8.139     10.971
REMARK  Name = min_compound916.pdb
REMARK  6 active torsions:
REMARK  status: ('A' for Active; 'I' for Inactive)
REMARK    1  A    between atoms: _6  and  _7
REMARK    2  A    between atoms: _7  and  _15
REMARK    3  A    between atoms: _8  and  _9
REMARK    4  A    between atoms: _8  and  _18
REMARK    5  A    between atoms: _15  and  _16
REMARK    6  A    between atoms: _17  and  _18
REMARK                            x       y       z     vdW  Elec       q    Type
REMARK                         _______ _______ _______ _____ _____    ______ ____
ROOT
ATOM      1  C   UNL     1     -18.351   2.639  -5.709  0.00  0.00    -0.019 C 
ATOM      2  C   UNL     1     -17.649   3.360  -6.600  0.00  0.00    -0.019 C 
ENDROOT
BRANCH   1   3
ATOM      3  C   UNL     1     -18.153   2.674  -4.224  0.00  0.00    +0.102 C 
BRANCH   3   4
ATOM      4  S   UNL     1     -17.774   0.999  -3.638  0.00  0.00    -0.102 S 
BRANCH   4   8
ATOM      5  C   UNL     1     -13.272   1.221  -3.362  0.00  0.00    +0.020 A 
ATOM      6  C   UNL     1     -14.000   0.071  -3.116  0.00  0.00    +0.112 A 
ATOM      7  N   UNL     1     -15.346   0.005  -3.190  0.00  0.00    -0.249 NA
ATOM      8  C   UNL     1     -16.006   1.132  -3.535  0.00  0.00    +0.097 A 
ATOM      9  C   UNL     1     -15.354   2.330  -3.806  0.00  0.00    +0.035 A 
ATOM     10  C   UNL     1     -13.966   2.373  -3.711  0.00  0.00    +0.004 A 
ENDBRANCH   4   8
ENDBRANCH   3   4
ENDBRANCH   1   3
BRANCH   2  11
ATOM     11  C   UNL     1     -17.900   3.310  -8.077  0.00  0.00    +0.102 C 
BRANCH  11  12
ATOM     12  S   UNL     1     -16.353   2.951  -8.950  0.00  0.00    -0.102 S 
BRANCH  12  13
ATOM     13  C   UNL     1     -15.949   1.446  -8.093  0.00  0.00    +0.097 A 
ATOM     14  N   UNL     1     -16.847   0.436  -8.167  0.00  0.00    -0.249 NA
ATOM     15  C   UNL     1     -16.543  -0.707  -7.517  0.00  0.00    +0.112 A 
ATOM     16  C   UNL     1     -15.370  -0.901  -6.808  0.00  0.00    +0.020 A 
ATOM     17  C   UNL     1     -14.458   0.145  -6.750  0.00  0.00    +0.004 A 
ATOM     18  C   UNL     1     -14.753   1.343  -7.396  0.00  0.00    +0.035 A 
ENDBRANCH  12  13
ENDBRANCH  11  12
ENDBRANCH   2  11
TORSDOF 6
ENDMDL
MODEL 5
REMARK VINA RESULT:      -6.0      1.466      1.868
REMARK  Name = min_compound916.pdb
REMARK  6 active torsions:
REMARK  status: ('A' for Active; 'I' for Inactive)
REMARK    1  A    between atoms: _6  and  _7
REMARK    2  A    between atoms: _7  and  _15
REMARK    3  A    between atoms: _8  and  _9
REMARK    4  A    between atoms: _8  and  _18
REMARK    5  A    between atoms: _15  and  _16
REMARK    6  A    between atoms: _17  and  _18
REMARK                            x       y       z     vdW  Elec       q    Type
REMARK                         _______ _______ _______ _____ _____    ______ ____
ROOT
ATOM      1  C   UNL     1     -13.048   4.521 -16.661  0.00  0.00    -0.019 C 
ATOM      2  C   UNL     1     -14.051   3.950 -15.972  0.00  0.00    -0.019 C 
ENDROOT
BRANCH   1   3
ATOM      3  C   UNL     1     -12.079   3.789 -17.539  0.00  0.00    +0.102 C 
BRANCH   3   4
ATOM      4  S   UNL     1     -10.585   3.408 -16.581  0.00  0.00    -0.102 S 
BRANCH   4   8
ATOM      5  C   UNL     1     -11.025  -1.062 -16.105  0.00  0.00    +0.020 A 
ATOM      6  C   UNL     1      -9.919  -0.349 -15.679  0.00  0.00    +0.112 A 
ATOM      7  N   UNL     1      -9.782   0.985 -15.828  0.00  0.00    -0.249 NA
ATOM      8  C   UNL     1     -10.797   1.652 -16.420  0.00  0.00    +0.097 A 
ATOM      9  C   UNL     1     -11.948   1.018 -16.873  0.00  0.00    +0.035 A 
ATOM     10  C   UNL     1     -12.058  -0.362 -16.717  0.00  0.00    +0.004 A 
ENDBRANCH   4   8
ENDBRANCH   3   4
ENDBRANCH   1   3
BRANCH   2  11
ATOM     11  C   UNL     1     -15.013   4.728 -15.124  0.00  0.00    +0.102 C 
BRANCH  11  12
ATOM     12  S   UNL     1     -16.434   3.689 -14.698  0.00  0.00    -0.102 S 
BRANCH  12  13
ATOM     13  C   UNL     1     -16.285   3.806 -12.931  0.00  0.00    +0.097 A 
ATOM     14  N   UNL     1     -17.120   3.042 -12.191  0.00  0.00    -0.249 NA
ATOM     15  C   UNL     1     -17.010   3.131 -10.848  0.00  0.00    +0.112 A 
ATOM     16  C   UNL     1     -16.087   3.936 -10.203  0.00  0.00    +0.020 A 
ATOM     17  C   UNL     1     -15.233   4.708 -10.982  0.00  0.00    +0.004 A 
ATOM     18  C   UNL     1     -15.337   4.651 -12.369  0.00  0.00    +0.035 A 
ENDBRANCH  12  13
ENDBRANCH  11  12
ENDBRANCH   2  11
TORSDOF 6
ENDMDL
MODEL 6
REMARK VINA RESULT:      -6.0      5.231      8.188
REMARK  Name = min_compound916.pdb
REMARK  6 active torsions:
REMARK  status: ('A' for Active; 'I' for Inactive)
REMARK    1  A    between atoms: _6  and  _7
REMARK    2  A    between atoms: _7  and  _15
REMARK    3  A    between atoms: _8  and  _9
REMARK    4  A    between atoms: _8  and  _18
REMARK    5  A    between atoms: _15  and  _16
REMARK    6  A    between atoms: _17  and  _18
REMARK                            x       y       z     vdW  Elec       q    Type
REMARK                         _______ _______ _______ _____ _____    ______ ____
ROOT
ATOM      1  C   UNL     1     -16.669   2.767  -8.523  0.00  0.00    -0.019 C 
ATOM      2  C   UNL     1     -16.824   1.432  -8.539  0.00  0.00    -0.019 C 
ENDROOT
BRANCH   1   3
ATOM      3  C   UNL     1     -17.362   3.727  -9.441  0.00  0.00    +0.102 C 
BRANCH   3   4
ATOM      4  S   UNL     1     -16.125   4.812 -10.206  0.00  0.00    -0.102 S 
BRANCH   4   8
ATOM      5  C   UNL     1     -15.977   3.077 -14.373  0.00  0.00    +0.020 A 
ATOM      6  C   UNL     1     -15.061   3.994 -13.891  0.00  0.00    +0.112 A 
ATOM      7  N   UNL     1     -15.109   4.520 -12.649  0.00  0.00    -0.249 NA
ATOM      8  C   UNL     1     -16.108   4.109 -11.837  0.00  0.00    +0.097 A 
ATOM      9  C   UNL     1     -17.068   3.187 -12.237  0.00  0.00    +0.035 A 
ATOM     10  C   UNL     1     -17.002   2.668 -13.528  0.00  0.00    +0.004 A 
ENDBRANCH   4   8
ENDBRANCH   3   4
ENDBRANCH   1   3
BRANCH   2  11
ATOM     11  C   UNL     1     -16.126   0.512  -7.583  0.00  0.00    +0.102 C 
BRANCH  11  12
ATOM     12  S   UNL     1     -14.448   1.116  -7.265  0.00  0.00    -0.102 S 
BRANCH  12  13
ATOM     13  C   UNL     1     -14.333   0.596  -5.568  0.00  0.00    +0.097 A 
ATOM     14  N   UNL     1     -14.774  -0.648  -5.275  0.00  0.00    -0.249 NA
ATOM     15  C   UNL     1     -14.689  -1.044  -3.988  0.00  0.00    +0.112 A 
ATOM     16  C   UNL     1     -14.163  -0.262  -2.974  0.00  0.00    +0.020 A 
ATOM     17  C   UNL     1     -13.708   1.011  -3.298  0.00  0.00    +0.004 A 
ATOM     18  C   UNL     1     -13.801   1.453  -4.614  0.00  0.00    +0.035 A 
ENDBRANCH  12  13
ENDBRANCH  11  12
ENDBRANCH   2  11
TORSDOF 6
ENDMDL
MODEL 7
REMARK VINA RESULT:      -5.7      4.832      6.774
REMARK  Name = min_compound916.pdb
REMARK  6 active torsions:
REMARK  status: ('A' for Active; 'I' for Inactive)
REMARK    1  A    between atoms: _6  and  _7
REMARK    2  A    between atoms: _7  and  _15
REMARK    3  A    between atoms: _8  and  _9
REMARK    4  A    between atoms: _8  and  _18
REMARK    5  A    between atoms: _15  and  _16
REMARK    6  A    between atoms: _17  and  _18
REMARK                            x       y       z     vdW  Elec       q    Type
REMARK                         _______ _______ _______ _____ _____    ______ ____
ROOT
ATOM      1  C   UNL     1     -12.117   5.023 -17.712  0.00  0.00    -0.019 C 
ATOM      2  C   UNL     1     -11.986   5.532 -18.949  0.00  0.00    -0.019 C 
ENDROOT
BRANCH   1   3
ATOM      3  C   UNL     1     -11.015   4.392 -16.917  0.00  0.00    +0.102 C 
BRANCH   3   4
ATOM      4  S   UNL     1     -11.742   3.335 -15.633  0.00  0.00    -0.102 S 
BRANCH   4   8
ATOM      5  C   UNL     1     -10.201  -0.691 -16.978  0.00  0.00    +0.020 A 
ATOM      6  C   UNL     1      -9.859  -0.101 -15.775  0.00  0.00    +0.112 A 
ATOM      7  N   UNL     1     -10.311   1.106 -15.375  0.00  0.00    -0.249 NA
ATOM      8  C   UNL     1     -11.155   1.759 -16.204  0.00  0.00    +0.097 A 
ATOM      9  C   UNL     1     -11.557   1.238 -17.429  0.00  0.00    +0.035 A 
ATOM     10  C   UNL     1     -11.065  -0.004 -17.822  0.00  0.00    +0.004 A 
ENDBRANCH   4   8
ENDBRANCH   3   4
ENDBRANCH   1   3
BRANCH   2  11
ATOM     11  C   UNL     1     -13.115   6.176 -19.698  0.00  0.00    +0.102 C 
BRANCH  11  12
ATOM     12  S   UNL     1     -14.548   5.068 -19.718  0.00  0.00    -0.102 S 
BRANCH  12  13
ATOM     13  C   UNL     1     -13.893   3.863 -20.849  0.00  0.00    +0.097 A 
ATOM     14  N   UNL     1     -13.488   4.312 -22.059  0.00  0.00    -0.249 NA
ATOM     15  C   UNL     1     -12.991   3.398 -22.919  0.00  0.00    +0.112 A 
ATOM     16  C   UNL     1     -12.859   2.053 -22.623  0.00  0.00    +0.020 A 
ATOM     17  C   UNL     1     -13.273   1.614 -21.371  0.00  0.00    +0.004 A 
ATOM     18  C   UNL     1     -13.807   2.530 -20.470  0.00  0.00    +0.035 A 
ENDBRANCH  12  13
ENDBRANCH  11  12
ENDBRANCH   2  11
TORSDOF 6
ENDMDL
MODEL 8
REMARK VINA RESULT:      -5.7      1.669      2.442
REMARK  Name = min_compound916.pdb
REMARK  6 active torsions:
REMARK  status: ('A' for Active; 'I' for Inactive)
REMARK    1  A    between atoms: _6  and  _7
REMARK    2  A    between atoms: _7  and  _15
REMARK    3  A    between atoms: _8  and  _9
REMARK    4  A    between atoms: _8  and  _18
REMARK    5  A    between atoms: _15  and  _16
REMARK    6  A    between atoms: _17  and  _18
REMARK                            x       y       z     vdW  Elec       q    Type
REMARK                         _______ _______ _______ _____ _____    ______ ____
ROOT
ATOM      1  C   UNL     1     -12.732   4.817 -17.555  0.00  0.00    -0.019 C 
ATOM      2  C   UNL     1     -13.679   5.031 -16.625  0.00  0.00    -0.019 C 
ENDROOT
BRANCH   1   3
ATOM      3  C   UNL     1     -11.744   3.691 -17.535  0.00  0.00    +0.102 C 
BRANCH   3   4
ATOM      4  S   UNL     1     -12.529   2.203 -18.217  0.00  0.00    -0.102 S 
BRANCH   4   8
ATOM      5  C   UNL     1      -9.722  -0.859 -16.445  0.00  0.00    +0.020 A 
ATOM      6  C   UNL     1      -9.304   0.206 -17.223  0.00  0.00    +0.112 A 
ATOM      7  N   UNL     1     -10.142   1.117 -17.760  0.00  0.00    -0.249 NA
ATOM      8  C   UNL     1     -11.462   0.974 -17.507  0.00  0.00    +0.097 A 
ATOM      9  C   UNL     1     -11.968  -0.062 -16.731  0.00  0.00    +0.035 A 
ATOM     10  C   UNL     1     -11.083  -0.995 -16.198  0.00  0.00    +0.004 A 
ENDBRANCH   4   8
ENDBRANCH   3   4
ENDBRANCH   1   3
BRANCH   2  11
ATOM     11  C   UNL     1     -14.664   6.160 -16.700  0.00  0.00    +0.102 C 
BRANCH  11  12
ATOM     12  S   UNL     1     -16.311   5.511 -17.083  0.00  0.00    -0.102 S 
BRANCH  12  13
ATOM     13  C   UNL     1     -16.497   4.486 -15.643  0.00  0.00    +0.097 A 
ATOM     14  N   UNL     1     -16.713   5.114 -14.464  0.00  0.00    -0.249 NA
ATOM     15  C   UNL     1     -16.853   4.337 -13.369  0.00  0.00    +0.112 A 
ATOM     16  C   UNL     1     -16.807   2.954 -13.395  0.00  0.00    +0.020 A 
ATOM     17  C   UNL     1     -16.592   2.328 -14.617  0.00  0.00    +0.004 A 
ATOM     18  C   UNL     1     -16.425   3.104 -15.760  0.00  0.00    +0.035 A 
ENDBRANCH  12  13
ENDBRANCH  11  12
ENDBRANCH   2  11
TORSDOF 6
ENDMDL
MODEL 9
REMARK VINA RESULT:      -5.6      3.756      4.697
REMARK  Name = min_compound916.pdb
REMARK  6 active torsions:
REMARK  status: ('A' for Active; 'I' for Inactive)
REMARK    1  A    between atoms: _6  and  _7
REMARK    2  A    between atoms: _7  and  _15
REMARK    3  A    between atoms: _8  and  _9
REMARK    4  A    between atoms: _8  and  _18
REMARK    5  A    between atoms: _15  and  _16
REMARK    6  A    between atoms: _17  and  _18
REMARK                            x       y       z     vdW  Elec       q    Type
REMARK                         _______ _______ _______ _____ _____    ______ ____
ROOT
ATOM      1  C   UNL     1     -13.374   4.511 -16.777  0.00  0.00    -0.019 C 
ATOM      2  C   UNL     1     -12.574   5.279 -17.536  0.00  0.00    -0.019 C 
ENDROOT
BRANCH   1   3
ATOM      3  C   UNL     1     -13.187   3.043 -16.539  0.00  0.00    +0.102 C 
BRANCH   3   4
ATOM      4  S   UNL     1     -12.725   2.245 -18.102  0.00  0.00    -0.102 S 
BRANCH   4   8
ATOM      5  C   UNL     1      -9.753  -0.772 -16.532  0.00  0.00    +0.020 A 
ATOM      6  C   UNL     1      -9.398   0.348 -17.262  0.00  0.00    +0.112 A 
ATOM      7  N   UNL     1     -10.285   1.246 -17.739  0.00  0.00    -0.249 NA
ATOM      8  C   UNL     1     -11.592   1.031 -17.471  0.00  0.00    +0.097 A 
ATOM      9  C   UNL     1     -12.038  -0.064 -16.740  0.00  0.00    +0.035 A 
ATOM     10  C   UNL     1     -11.102  -0.980 -16.269  0.00  0.00    +0.004 A 
ENDBRANCH   4   8
ENDBRANCH   3   4
ENDBRANCH   1   3
BRANCH   2  11
ATOM     11  C   UNL     1     -12.787   6.751 -17.726  0.00  0.00    +0.102 C 
BRANCH  11  12
ATOM     12  S   UNL     1     -14.339   7.037 -18.615  0.00  0.00    -0.102 S 
BRANCH  12  13
ATOM     13  C   UNL     1     -15.109   8.088 -17.405  0.00  0.00    +0.097 A 
ATOM     14  N   UNL     1     -14.872   7.804 -16.104  0.00  0.00    -0.249 NA
ATOM     15  C   UNL     1     -15.456   8.601 -15.184  0.00  0.00    +0.112 A 
ATOM     16  C   UNL     1     -16.254   9.686 -15.500  0.00  0.00    +0.020 A 
ATOM     17  C   UNL     1     -16.479   9.965 -16.843  0.00  0.00    +0.004 A 
ATOM     18  C   UNL     1     -15.905   9.150 -17.814  0.00  0.00    +0.035 A 
ENDBRANCH  12  13
ENDBRANCH  11  12
ENDBRANCH   2  11
TORSDOF 6
ENDMDL
