MODEL 1
REMARK VINA RESULT:      -3.8      0.000      0.000
REMARK  Name = min_compound3.pdb
REMARK  3 active torsions:
REMARK  status: ('A' for Active; 'I' for Inactive)
REMARK    1  A    between atoms: _3  and  _8
REMARK    2  A    between atoms: _8  and  _9
REMARK    3  A    between atoms: _9  and  _10
REMARK                            x       y       z     vdW  Elec       q    Type
REMARK                         _______ _______ _______ _____ _____    ______ ____
ROOT
ATOM      1  H   UNL     1     -11.222  -1.406 -18.033  0.00  0.00    +0.122 HD
ATOM      2  N   UNL     1     -11.212  -0.403 -17.852  0.00  0.00    -0.314 NA
ATOM      3  C   UNL     1     -12.114  -0.139 -16.703  0.00  0.00    +0.096 C 
ATOM      4  C   UNL     1     -12.324   1.483 -16.453  0.00  0.00    +0.099 C 
ATOM      5  N   UNL     1     -10.995   1.815 -15.844  0.00  0.00    -0.299 NA
ATOM      6  C   UNL     1     -10.092   1.549 -17.014  0.00  0.00    +0.099 C 
ATOM      7  C   UNL     1      -9.883  -0.071 -17.243  0.00  0.00    +0.096 C 
ENDROOT
BRANCH   5   8
ATOM      8  C   UNL     1     -10.941   3.267 -15.547  0.00  0.00    +0.099 C 
BRANCH   8   9
ATOM      9  C   UNL     1     -10.394   4.116 -16.715  0.00  0.00    +0.093 C 
BRANCH   9  10
ATOM     10  N   UNL     1     -11.412   5.031 -17.240  0.00  0.00    -0.329 NA
ATOM     11  H   UNL     1     -11.409   4.986 -18.258  0.00  0.00    +0.118 HD
ATOM     12  H   UNL     1     -11.149   5.987 -17.000  0.00  0.00    +0.118 HD
ENDBRANCH   9  10
ENDBRANCH   8   9
ENDBRANCH   5   8
TORSDOF 3
ENDMDL
MODEL 2
REMARK VINA RESULT:      -3.7      1.843      2.665
REMARK  Name = min_compound3.pdb
REMARK  3 active torsions:
REMARK  status: ('A' for Active; 'I' for Inactive)
REMARK    1  A    between atoms: _3  and  _8
REMARK    2  A    between atoms: _8  and  _9
REMARK    3  A    between atoms: _9  and  _10
REMARK                            x       y       z     vdW  Elec       q    Type
REMARK                         _______ _______ _______ _____ _____    ______ ____
ROOT
ATOM      1  H   UNL     1      -8.938  -1.030 -15.575  0.00  0.00    +0.122 HD
ATOM      2  N   UNL     1      -9.624  -0.325 -15.846  0.00  0.00    -0.314 NA
ATOM      3  C   UNL     1      -9.249   0.181 -17.190  0.00  0.00    +0.096 C 
ATOM      4  C   UNL     1     -10.185   1.471 -17.638  0.00  0.00    +0.099 C 
ATOM      5  N   UNL     1     -11.462   0.753 -17.958  0.00  0.00    -0.299 NA
ATOM      6  C   UNL     1     -11.833   0.250 -16.593  0.00  0.00    +0.099 C 
ATOM      7  C   UNL     1     -10.901  -1.043 -16.166  0.00  0.00    +0.096 C 
ENDROOT
BRANCH   5   8
ATOM      8  C   UNL     1     -12.487   1.741 -18.374  0.00  0.00    +0.099 C 
BRANCH   8   9
ATOM      9  C   UNL     1     -13.302   2.319 -17.197  0.00  0.00    +0.093 C 
BRANCH   9  10
ATOM     10  N   UNL     1     -13.055   3.753 -17.022  0.00  0.00    -0.329 NA
ATOM     11  H   UNL     1     -13.175   3.995 -16.040  0.00  0.00    +0.118 HD
ATOM     12  H   UNL     1     -13.771   4.274 -17.530  0.00  0.00    +0.118 HD
ENDBRANCH   9  10
ENDBRANCH   8   9
ENDBRANCH   5   8
TORSDOF 3
ENDMDL
MODEL 3
REMARK VINA RESULT:      -3.6      2.095      2.414
REMARK  Name = min_compound3.pdb
REMARK  3 active torsions:
REMARK  status: ('A' for Active; 'I' for Inactive)
REMARK    1  A    between atoms: _3  and  _8
REMARK    2  A    between atoms: _8  and  _9
REMARK    3  A    between atoms: _9  and  _10
REMARK                            x       y       z     vdW  Elec       q    Type
REMARK                         _______ _______ _______ _____ _____    ______ ____
ROOT
ATOM      1  H   UNL     1      -8.939  -0.152 -17.044  0.00  0.00    +0.122 HD
ATOM      2  N   UNL     1      -9.669   0.559 -17.039  0.00  0.00    -0.314 NA
ATOM      3  C   UNL     1     -10.887  -0.035 -17.646  0.00  0.00    +0.096 C 
ATOM      4  C   UNL     1     -12.072   1.098 -17.868  0.00  0.00    +0.099 C 
ATOM      5  N   UNL     1     -12.523   1.268 -16.449  0.00  0.00    -0.299 NA
ATOM      6  C   UNL     1     -11.288   1.873 -15.848  0.00  0.00    +0.099 C 
ATOM      7  C   UNL     1     -10.121   0.730 -15.620  0.00  0.00    +0.096 C 
ENDROOT
BRANCH   5   8
ATOM      8  C   UNL     1     -13.601   2.286 -16.396  0.00  0.00    +0.099 C 
BRANCH   8   9
ATOM      9  C   UNL     1     -13.222   3.545 -15.588  0.00  0.00    +0.093 C 
BRANCH   9  10
ATOM     10  N   UNL     1     -14.260   3.895 -14.614  0.00  0.00    -0.329 NA
ATOM     11  H   UNL     1     -14.568   3.049 -14.136  0.00  0.00    +0.118 HD
ATOM     12  H   UNL     1     -15.076   4.247 -15.115  0.00  0.00    +0.118 HD
ENDBRANCH   9  10
ENDBRANCH   8   9
ENDBRANCH   5   8
TORSDOF 3
ENDMDL
MODEL 4
REMARK VINA RESULT:      -3.6      1.887      3.769
REMARK  Name = min_compound3.pdb
REMARK  3 active torsions:
REMARK  status: ('A' for Active; 'I' for Inactive)
REMARK    1  A    between atoms: _3  and  _8
REMARK    2  A    between atoms: _8  and  _9
REMARK    3  A    between atoms: _9  and  _10
REMARK                            x       y       z     vdW  Elec       q    Type
REMARK                         _______ _______ _______ _____ _____    ______ ____
ROOT
ATOM      1  H   UNL     1     -14.631   3.211 -16.611  0.00  0.00    +0.122 HD
ATOM      2  N   UNL     1     -13.853   2.551 -16.603  0.00  0.00    -0.314 NA
ATOM      3  C   UNL     1     -13.279   2.508 -17.971  0.00  0.00    +0.096 C 
ATOM      4  C   UNL     1     -12.137   1.319 -18.115  0.00  0.00    +0.099 C 
ATOM      5  N   UNL     1     -11.012   1.962 -17.361  0.00  0.00    -0.299 NA
ATOM      6  C   UNL     1     -11.601   1.996 -15.981  0.00  0.00    +0.099 C 
ATOM      7  C   UNL     1     -12.728   3.194 -15.849  0.00  0.00    +0.096 C 
ENDROOT
BRANCH   5   8
ATOM      8  C   UNL     1      -9.849   1.041 -17.337  0.00  0.00    +0.099 C 
BRANCH   8   9
ATOM      9  C   UNL     1     -10.199  -0.384 -16.858  0.00  0.00    +0.093 C 
BRANCH   9  10
ATOM     10  N   UNL     1      -9.222  -0.882 -15.885  0.00  0.00    -0.329 NA
ATOM     11  H   UNL     1      -8.452  -1.325 -16.383  0.00  0.00    +0.118 HD
ATOM     12  H   UNL     1      -9.658  -1.617 -15.329  0.00  0.00    +0.118 HD
ENDBRANCH   9  10
ENDBRANCH   8   9
ENDBRANCH   5   8
TORSDOF 3
ENDMDL
MODEL 5
REMARK VINA RESULT:      -3.5      2.058      2.859
REMARK  Name = min_compound3.pdb
REMARK  3 active torsions:
REMARK  status: ('A' for Active; 'I' for Inactive)
REMARK    1  A    between atoms: _3  and  _8
REMARK    2  A    between atoms: _8  and  _9
REMARK    3  A    between atoms: _9  and  _10
REMARK                            x       y       z     vdW  Elec       q    Type
REMARK                         _______ _______ _______ _____ _____    ______ ____
ROOT
ATOM      1  H   UNL     1      -9.568   0.527 -14.570  0.00  0.00    +0.122 HD
ATOM      2  N   UNL     1      -9.851   0.829 -15.502  0.00  0.00    -0.314 NA
ATOM      3  C   UNL     1     -10.744  -0.213 -16.067  0.00  0.00    +0.096 C 
ATOM      4  C   UNL     1     -11.100   0.085 -17.655  0.00  0.00    +0.099 C 
ATOM      5  N   UNL     1     -12.067   1.217 -17.485  0.00  0.00    -0.299 NA
ATOM      6  C   UNL     1     -11.154   2.265 -16.918  0.00  0.00    +0.099 C 
ATOM      7  C   UNL     1     -10.819   1.961 -15.332  0.00  0.00    +0.096 C 
ENDROOT
BRANCH   5   8
ATOM      8  C   UNL     1     -12.519   1.680 -18.820  0.00  0.00    +0.099 C 
BRANCH   8   9
ATOM      9  C   UNL     1     -13.634   2.747 -18.759  0.00  0.00    +0.093 C 
BRANCH   9  10
ATOM     10  N   UNL     1     -13.336   3.890 -19.627  0.00  0.00    -0.329 NA
ATOM     11  H   UNL     1     -12.335   4.077 -19.599  0.00  0.00    +0.118 HD
ATOM     12  H   UNL     1     -13.788   4.720 -19.243  0.00  0.00    +0.118 HD
ENDBRANCH   9  10
ENDBRANCH   8   9
ENDBRANCH   5   8
TORSDOF 3
ENDMDL
MODEL 6
REMARK VINA RESULT:      -3.4     12.097     12.798
REMARK  Name = min_compound3.pdb
REMARK  3 active torsions:
REMARK  status: ('A' for Active; 'I' for Inactive)
REMARK    1  A    between atoms: _3  and  _8
REMARK    2  A    between atoms: _8  and  _9
REMARK    3  A    between atoms: _9  and  _10
REMARK                            x       y       z     vdW  Elec       q    Type
REMARK                         _______ _______ _______ _____ _____    ______ ____
ROOT
ATOM      1  H   UNL     1     -15.050  -2.473  -6.267  0.00  0.00    +0.122 HD
ATOM      2  N   UNL     1     -14.834  -1.511  -6.009  0.00  0.00    -0.314 NA
ATOM      3  C   UNL     1     -16.095  -0.730  -6.066  0.00  0.00    +0.096 C 
ATOM      4  C   UNL     1     -15.820   0.888  -5.858  0.00  0.00    +0.099 C 
ATOM      5  N   UNL     1     -15.549   0.907  -4.384  0.00  0.00    -0.299 NA
ATOM      6  C   UNL     1     -14.271   0.120  -4.339  0.00  0.00    +0.099 C 
ATOM      7  C   UNL     1     -14.563  -1.492  -4.535  0.00  0.00    +0.096 C 
ENDROOT
BRANCH   5   8
ATOM      8  C   UNL     1     -15.244   2.296  -3.960  0.00  0.00    +0.099 C 
BRANCH   8   9
ATOM      9  C   UNL     1     -16.393   3.290  -4.232  0.00  0.00    +0.093 C 
BRANCH   9  10
ATOM     10  N   UNL     1     -16.025   4.657  -3.851  0.00  0.00    -0.329 NA
ATOM     11  H   UNL     1     -15.810   5.191  -4.691  0.00  0.00    +0.118 HD
ATOM     12  H   UNL     1     -15.162   4.626  -3.308  0.00  0.00    +0.118 HD
ENDBRANCH   9  10
ENDBRANCH   8   9
ENDBRANCH   5   8
TORSDOF 3
ENDMDL
MODEL 7
REMARK VINA RESULT:      -3.4      1.324      3.905
REMARK  Name = min_compound3.pdb
REMARK  3 active torsions:
REMARK  status: ('A' for Active; 'I' for Inactive)
REMARK    1  A    between atoms: _3  and  _8
REMARK    2  A    between atoms: _8  and  _9
REMARK    3  A    between atoms: _9  and  _10
REMARK                            x       y       z     vdW  Elec       q    Type
REMARK                         _______ _______ _______ _____ _____    ______ ____
ROOT
ATOM      1  H   UNL     1     -13.446   4.547 -17.151  0.00  0.00    +0.122 HD
ATOM      2  N   UNL     1     -12.850   3.720 -17.178  0.00  0.00    -0.314 NA
ATOM      3  C   UNL     1     -11.567   4.063 -16.515  0.00  0.00    +0.096 C 
ATOM      4  C   UNL     1     -10.453   2.850 -16.682  0.00  0.00    +0.099 C 
ATOM      5  N   UNL     1     -11.014   1.860 -15.706  0.00  0.00    -0.299 NA
ATOM      6  C   UNL     1     -12.307   1.519 -16.387  0.00  0.00    +0.099 C 
ATOM      7  C   UNL     1     -13.411   2.730 -16.202  0.00  0.00    +0.096 C 
ENDROOT
BRANCH   5   8
ATOM      8  C   UNL     1     -10.166   0.643 -15.700  0.00  0.00    +0.099 C 
BRANCH   8   9
ATOM      9  C   UNL     1     -10.755  -0.524 -16.521  0.00  0.00    +0.093 C 
BRANCH   9  10
ATOM     10  N   UNL     1      -9.872  -0.908 -17.625  0.00  0.00    -0.329 NA
ATOM     11  H   UNL     1      -9.454  -1.814 -17.419  0.00  0.00    +0.118 HD
ATOM     12  H   UNL     1      -9.097  -0.245 -17.672  0.00  0.00    +0.118 HD
ENDBRANCH   9  10
ENDBRANCH   8   9
ENDBRANCH   5   8
TORSDOF 3
ENDMDL
MODEL 8
REMARK VINA RESULT:      -3.4     11.788     12.926
REMARK  Name = min_compound3.pdb
REMARK  3 active torsions:
REMARK  status: ('A' for Active; 'I' for Inactive)
REMARK    1  A    between atoms: _3  and  _8
REMARK    2  A    between atoms: _8  and  _9
REMARK    3  A    between atoms: _9  and  _10
REMARK                            x       y       z     vdW  Elec       q    Type
REMARK                         _______ _______ _______ _____ _____    ______ ____
ROOT
ATOM      1  H   UNL     1     -13.325   1.243  -2.117  0.00  0.00    +0.122 HD
ATOM      2  N   UNL     1     -13.364   0.861  -3.062  0.00  0.00    -0.314 NA
ATOM      3  C   UNL     1     -14.382  -0.220  -3.075  0.00  0.00    +0.096 C 
ATOM      4  C   UNL     1     -14.382  -1.039  -4.513  0.00  0.00    +0.099 C 
ATOM      5  N   UNL     1     -15.050  -0.017  -5.382  0.00  0.00    -0.299 NA
ATOM      6  C   UNL     1     -14.012   1.066  -5.365  0.00  0.00    +0.099 C 
ATOM      7  C   UNL     1     -14.032   1.883  -3.932  0.00  0.00    +0.096 C 
ENDROOT
BRANCH   5   8
ATOM      8  C   UNL     1     -15.143  -0.538  -6.768  0.00  0.00    +0.099 C 
BRANCH   8   9
ATOM      9  C   UNL     1     -16.592  -0.665  -7.284  0.00  0.00    +0.093 C 
BRANCH   9  10
ATOM     10  N   UNL     1     -17.456  -1.340  -6.311  0.00  0.00    -0.329 NA
ATOM     11  H   UNL     1     -17.761  -0.665  -5.611  0.00  0.00    +0.118 HD
ATOM     12  H   UNL     1     -16.903  -2.035  -5.808  0.00  0.00    +0.118 HD
ENDBRANCH   9  10
ENDBRANCH   8   9
ENDBRANCH   5   8
TORSDOF 3
ENDMDL
MODEL 9
REMARK VINA RESULT:      -3.3     10.047     11.238
REMARK  Name = min_compound3.pdb
REMARK  3 active torsions:
REMARK  status: ('A' for Active; 'I' for Inactive)
REMARK    1  A    between atoms: _3  and  _8
REMARK    2  A    between atoms: _8  and  _9
REMARK    3  A    between atoms: _9  and  _10
REMARK                            x       y       z     vdW  Elec       q    Type
REMARK                         _______ _______ _______ _____ _____    ______ ____
ROOT
ATOM      1  H   UNL     1     -17.897   4.096  -8.597  0.00  0.00    +0.122 HD
ATOM      2  N   UNL     1     -17.558   3.261  -8.119  0.00  0.00    -0.314 NA
ATOM      3  C   UNL     1     -18.424   2.124  -8.518  0.00  0.00    +0.096 C 
ATOM      4  C   UNL     1     -18.083   0.762  -7.642  0.00  0.00    +0.099 C 
ATOM      5  N   UNL     1     -16.790   0.367  -8.290  0.00  0.00    -0.299 NA
ATOM      6  C   UNL     1     -15.922   1.520  -7.877  0.00  0.00    +0.099 C 
ATOM      7  C   UNL     1     -16.265   2.867  -8.766  0.00  0.00    +0.096 C 
ENDROOT
BRANCH   5   8
ATOM      8  C   UNL     1     -16.267  -0.856  -7.634  0.00  0.00    +0.099 C 
BRANCH   8   9
ATOM      9  C   UNL     1     -15.024  -0.600  -6.754  0.00  0.00    +0.093 C 
BRANCH   9  10
ATOM     10  N   UNL     1     -14.612  -1.810  -6.037  0.00  0.00    -0.329 NA
ATOM     11  H   UNL     1     -14.927  -1.749  -5.070  0.00  0.00    +0.118 HD
ATOM     12  H   UNL     1     -13.593  -1.839  -5.999  0.00  0.00    +0.118 HD
ENDBRANCH   9  10
ENDBRANCH   8   9
ENDBRANCH   5   8
TORSDOF 3
ENDMDL
