MODEL 1
REMARK VINA RESULT:      -7.6      0.000      0.000
REMARK  Name = min_compound996.pdb
REMARK  5 active torsions:
REMARK  status: ('A' for Active; 'I' for Inactive)
REMARK    1  A    between atoms: _2  and  _9
REMARK    2  A    between atoms: _2  and  _19
REMARK    3  A    between atoms: _10  and  _19
REMARK    4  A    between atoms: _19  and  _20
REMARK    5  A    between atoms: _19  and  _21
REMARK                            x       y       z     vdW  Elec       q    Type
REMARK                         _______ _______ _______ _____ _____    ______ ____
ROOT
ATOM      1  S   UNL     1     -14.688   2.715 -16.446  0.00  0.00    -0.013 S 
ENDROOT
BRANCH   1   2
ATOM      2  C   UNL     1     -12.930   2.832 -16.275  0.00  0.00    +0.124 A 
ATOM      3  C   UNL     1     -12.172   1.663 -16.315  0.00  0.00    +0.097 A 
ATOM      4  C   UNL     1     -10.773   1.808 -16.164  0.00  0.00    +0.002 A 
ATOM      5  C   UNL     1     -10.192   3.077 -15.983  0.00  0.00    +0.010 A 
ATOM      6  C   UNL     1     -10.983   4.221 -15.947  0.00  0.00    +0.003 A 
ATOM      7  C   UNL     1      -9.971   0.660 -16.203  0.00  0.00    +0.011 A 
ATOM      8  C   UNL     1     -10.550  -0.588 -16.389  0.00  0.00    +0.020 A 
ATOM      9  C   UNL     1     -11.918  -0.646 -16.528  0.00  0.00    +0.111 A 
ATOM     10  N   UNL     1     -12.722   0.440 -16.490  0.00  0.00    -0.253 NA
ATOM     11  C   UNL     1     -12.357   4.103 -16.093  0.00  0.00    +0.030 A 
ENDBRANCH   1   2
BRANCH   1  12
ATOM     12  O   UNL     1     -15.088   1.474 -15.807  0.00  0.00    -0.263 OA
ATOM     13  H   UNL     1     -14.299   0.982 -15.534  0.00  0.00    +0.244 HD
ENDBRANCH   1  12
BRANCH   1  14
ATOM     14  O   UNL     1     -14.979   2.927 -17.856  0.00  0.00    -0.263 OA
ATOM     15  H   UNL     1     -14.190   3.276 -18.300  0.00  0.00    +0.244 HD
ENDBRANCH   1  14
BRANCH   1  16
ATOM     16  O   UNL     1     -15.283   4.002 -15.634  0.00  0.00    -0.363 OA
BRANCH  16  21
ATOM     17 CL   UNL     1     -16.902   3.611 -10.007  0.00  0.00    -0.084 Cl
ATOM     18  C   UNL     1     -16.443   3.711 -11.662  0.00  0.00    +0.041 A 
ATOM     19  C   UNL     1     -17.191   3.041 -12.631  0.00  0.00    +0.023 A 
ATOM     20  C   UNL     1     -16.819   3.120 -13.976  0.00  0.00    +0.050 A 
ATOM     21  C   UNL     1     -15.692   3.859 -14.336  0.00  0.00    +0.155 A 
ATOM     22  C   UNL     1     -14.958   4.546 -13.369  0.00  0.00    +0.050 A 
ATOM     23  C   UNL     1     -15.328   4.466 -12.026  0.00  0.00    +0.023 A 
ENDBRANCH  16  21
ENDBRANCH   1  16
TORSDOF 5
ENDMDL
MODEL 2
REMARK VINA RESULT:      -7.4      1.931      2.459
REMARK  Name = min_compound996.pdb
REMARK  5 active torsions:
REMARK  status: ('A' for Active; 'I' for Inactive)
REMARK    1  A    between atoms: _2  and  _9
REMARK    2  A    between atoms: _2  and  _19
REMARK    3  A    between atoms: _10  and  _19
REMARK    4  A    between atoms: _19  and  _20
REMARK    5  A    between atoms: _19  and  _21
REMARK                            x       y       z     vdW  Elec       q    Type
REMARK                         _______ _______ _______ _____ _____    ______ ____
ROOT
ATOM      1  S   UNL     1     -13.521   3.181 -18.910  0.00  0.00    -0.013 S 
ENDROOT
BRANCH   1   2
ATOM      2  C   UNL     1     -12.204   3.266 -17.730  0.00  0.00    +0.124 A 
ATOM      3  C   UNL     1     -11.727   2.082 -17.170  0.00  0.00    +0.097 A 
ATOM      4  C   UNL     1     -10.681   2.203 -16.225  0.00  0.00    +0.002 A 
ATOM      5  C   UNL     1     -10.161   3.464 -15.879  0.00  0.00    +0.010 A 
ATOM      6  C   UNL     1     -10.664   4.624 -16.460  0.00  0.00    +0.003 A 
ATOM      7  C   UNL     1     -10.167   1.039 -15.641  0.00  0.00    +0.011 A 
ATOM      8  C   UNL     1     -10.681  -0.202 -15.991  0.00  0.00    +0.020 A 
ATOM      9  C   UNL     1     -11.698  -0.237 -16.919  0.00  0.00    +0.111 A 
ATOM     10  N   UNL     1     -12.221   0.867 -17.498  0.00  0.00    -0.253 NA
ATOM     11  C   UNL     1     -11.690   4.530 -17.389  0.00  0.00    +0.030 A 
ENDBRANCH   1   2
BRANCH   1  12
ATOM     12  O   UNL     1     -13.279   2.003 -19.723  0.00  0.00    -0.263 OA
ATOM     13  H   UNL     1     -13.138   2.269 -20.644  0.00  0.00    +0.244 HD
ENDBRANCH   1  12
BRANCH   1  14
ATOM     14  O   UNL     1     -13.594   4.491 -19.542  0.00  0.00    -0.263 OA
ATOM     15  H   UNL     1     -13.668   5.175 -18.858  0.00  0.00    +0.244 HD
ENDBRANCH   1  14
BRANCH   1  16
ATOM     16  O   UNL     1     -14.880   3.002 -18.022  0.00  0.00    -0.363 OA
BRANCH  16  21
ATOM     17 CL   UNL     1     -15.540   5.966 -13.000  0.00  0.00    -0.084 Cl
ATOM     18  C   UNL     1     -15.339   5.079 -14.461  0.00  0.00    +0.041 A 
ATOM     19  C   UNL     1     -14.995   3.728 -14.410  0.00  0.00    +0.023 A 
ATOM     20  C   UNL     1     -14.830   3.006 -15.595  0.00  0.00    +0.050 A 
ATOM     21  C   UNL     1     -15.000   3.649 -16.822  0.00  0.00    +0.155 A 
ATOM     22  C   UNL     1     -15.366   4.994 -16.870  0.00  0.00    +0.050 A 
ATOM     23  C   UNL     1     -15.529   5.716 -15.686  0.00  0.00    +0.023 A 
ENDBRANCH  16  21
ENDBRANCH   1  16
TORSDOF 5
ENDMDL
MODEL 3
REMARK VINA RESULT:      -7.3      4.214      6.182
REMARK  Name = min_compound996.pdb
REMARK  5 active torsions:
REMARK  status: ('A' for Active; 'I' for Inactive)
REMARK    1  A    between atoms: _2  and  _9
REMARK    2  A    between atoms: _2  and  _19
REMARK    3  A    between atoms: _10  and  _19
REMARK    4  A    between atoms: _19  and  _20
REMARK    5  A    between atoms: _19  and  _21
REMARK                            x       y       z     vdW  Elec       q    Type
REMARK                         _______ _______ _______ _____ _____    ______ ____
ROOT
ATOM      1  S   UNL     1     -13.848   3.173 -18.519  0.00  0.00    -0.013 S 
ENDROOT
BRANCH   1   2
ATOM      2  C   UNL     1     -13.049   4.740 -18.729  0.00  0.00    +0.124 A 
ATOM      3  C   UNL     1     -12.855   5.225 -20.021  0.00  0.00    +0.097 A 
ATOM      4  C   UNL     1     -12.204   6.476 -20.137  0.00  0.00    +0.002 A 
ATOM      5  C   UNL     1     -11.781   7.180 -18.995  0.00  0.00    +0.010 A 
ATOM      6  C   UNL     1     -11.993   6.662 -17.722  0.00  0.00    +0.003 A 
ATOM      7  C   UNL     1     -11.992   7.006 -21.417  0.00  0.00    +0.011 A 
ATOM      8  C   UNL     1     -12.418   6.309 -22.539  0.00  0.00    +0.020 A 
ATOM      9  C   UNL     1     -13.044   5.098 -22.343  0.00  0.00    +0.111 A 
ATOM     10  N   UNL     1     -13.259   4.555 -21.124  0.00  0.00    -0.253 NA
ATOM     11  C   UNL     1     -12.628   5.437 -17.584  0.00  0.00    +0.030 A 
ENDBRANCH   1   2
BRANCH   1  12
ATOM     12  O   UNL     1     -13.190   2.244 -19.421  0.00  0.00    -0.263 OA
ATOM     13  H   UNL     1     -12.376   1.917 -19.009  0.00  0.00    +0.244 HD
ENDBRANCH   1  12
BRANCH   1  14
ATOM     14  O   UNL     1     -15.276   3.418 -18.651  0.00  0.00    -0.263 OA
ATOM     15  H   UNL     1     -15.565   3.174 -19.545  0.00  0.00    +0.244 HD
ENDBRANCH   1  14
BRANCH   1  16
ATOM     16  O   UNL     1     -13.574   2.760 -16.962  0.00  0.00    -0.363 OA
BRANCH  16  21
ATOM     17 CL   UNL     1      -9.347  -1.139 -15.790  0.00  0.00    -0.084 Cl
ATOM     18  C   UNL     1     -10.573   0.021 -16.127  0.00  0.00    +0.041 A 
ATOM     19  C   UNL     1     -10.294   1.381 -15.999  0.00  0.00    +0.023 A 
ATOM     20  C   UNL     1     -11.288   2.325 -16.270  0.00  0.00    +0.050 A 
ATOM     21  C   UNL     1     -12.558   1.895 -16.656  0.00  0.00    +0.155 A 
ATOM     22  C   UNL     1     -12.829   0.534 -16.804  0.00  0.00    +0.050 A 
ATOM     23  C   UNL     1     -11.836  -0.408 -16.531  0.00  0.00    +0.023 A 
ENDBRANCH  16  21
ENDBRANCH   1  16
TORSDOF 5
ENDMDL
MODEL 4
REMARK VINA RESULT:      -7.0      3.376      6.427
REMARK  Name = min_compound996.pdb
REMARK  5 active torsions:
REMARK  status: ('A' for Active; 'I' for Inactive)
REMARK    1  A    between atoms: _2  and  _9
REMARK    2  A    between atoms: _2  and  _19
REMARK    3  A    between atoms: _10  and  _19
REMARK    4  A    between atoms: _19  and  _20
REMARK    5  A    between atoms: _19  and  _21
REMARK                            x       y       z     vdW  Elec       q    Type
REMARK                         _______ _______ _______ _____ _____    ______ ____
ROOT
ATOM      1  S   UNL     1     -14.815   3.240 -16.394  0.00  0.00    -0.013 S 
ENDROOT
BRANCH   1   2
ATOM      2  C   UNL     1     -15.141   4.449 -15.141  0.00  0.00    +0.124 A 
ATOM      3  C   UNL     1     -15.179   5.795 -15.500  0.00  0.00    +0.097 A 
ATOM      4  C   UNL     1     -15.434   6.722 -14.462  0.00  0.00    +0.002 A 
ATOM      5  C   UNL     1     -15.635   6.289 -13.139  0.00  0.00    +0.010 A 
ATOM      6  C   UNL     1     -15.589   4.935 -12.819  0.00  0.00    +0.003 A 
ATOM      7  C   UNL     1     -15.486   8.085 -14.779  0.00  0.00    +0.011 A 
ATOM      8  C   UNL     1     -15.293   8.505 -16.087  0.00  0.00    +0.020 A 
ATOM      9  C   UNL     1     -15.051   7.542 -17.041  0.00  0.00    +0.111 A 
ATOM     10  N   UNL     1     -14.988   6.219 -16.770  0.00  0.00    -0.253 NA
ATOM     11  C   UNL     1     -15.341   4.008 -13.821  0.00  0.00    +0.030 A 
ENDBRANCH   1   2
BRANCH   1  12
ATOM     12  O   UNL     1     -15.662   3.573 -17.525  0.00  0.00    -0.263 OA
ATOM     13  H   UNL     1     -15.576   2.888 -18.205  0.00  0.00    +0.244 HD
ENDBRANCH   1  12
BRANCH   1  14
ATOM     14  O   UNL     1     -14.943   1.939 -15.754  0.00  0.00    -0.263 OA
ATOM     15  H   UNL     1     -15.631   1.424 -16.205  0.00  0.00    +0.244 HD
ENDBRANCH   1  14
BRANCH   1  16
ATOM     16  O   UNL     1     -13.239   3.435 -16.774  0.00  0.00    -0.363 OA
BRANCH  16  21
ATOM     17 CL   UNL     1      -9.492  -1.024 -16.052  0.00  0.00    -0.084 Cl
ATOM     18  C   UNL     1     -10.598   0.274 -16.282  0.00  0.00    +0.041 A 
ATOM     19  C   UNL     1     -11.534   0.212 -17.314  0.00  0.00    +0.023 A 
ATOM     20  C   UNL     1     -12.433   1.266 -17.505  0.00  0.00    +0.050 A 
ATOM     21  C   UNL     1     -12.376   2.379 -16.665  0.00  0.00    +0.155 A 
ATOM     22  C   UNL     1     -11.454   2.429 -15.620  0.00  0.00    +0.050 A 
ATOM     23  C   UNL     1     -10.555   1.378 -15.431  0.00  0.00    +0.023 A 
ENDBRANCH  16  21
ENDBRANCH   1  16
TORSDOF 5
ENDMDL
MODEL 5
REMARK VINA RESULT:      -7.0      1.988      3.371
REMARK  Name = min_compound996.pdb
REMARK  5 active torsions:
REMARK  status: ('A' for Active; 'I' for Inactive)
REMARK    1  A    between atoms: _2  and  _9
REMARK    2  A    between atoms: _2  and  _19
REMARK    3  A    between atoms: _10  and  _19
REMARK    4  A    between atoms: _19  and  _20
REMARK    5  A    between atoms: _19  and  _21
REMARK                            x       y       z     vdW  Elec       q    Type
REMARK                         _______ _______ _______ _____ _____    ______ ____
ROOT
ATOM      1  S   UNL     1     -15.440   3.090 -16.303  0.00  0.00    -0.013 S 
ENDROOT
BRANCH   1   2
ATOM      2  C   UNL     1     -13.755   3.629 -16.382  0.00  0.00    +0.124 A 
ATOM      3  C   UNL     1     -13.460   4.813 -17.055  0.00  0.00    +0.097 A 
ATOM      4  C   UNL     1     -12.099   5.196 -17.098  0.00  0.00    +0.002 A 
ATOM      5  C   UNL     1     -11.106   4.408 -16.487  0.00  0.00    +0.010 A 
ATOM      6  C   UNL     1     -11.440   3.232 -15.824  0.00  0.00    +0.003 A 
ATOM      7  C   UNL     1     -11.756   6.382 -17.761  0.00  0.00    +0.011 A 
ATOM      8  C   UNL     1     -12.741   7.157 -18.356  0.00  0.00    +0.020 A 
ATOM      9  C   UNL     1     -14.043   6.717 -18.270  0.00  0.00    +0.111 A 
ATOM     10  N   UNL     1     -14.408   5.576 -17.645  0.00  0.00    -0.253 NA
ATOM     11  C   UNL     1     -12.769   2.837 -15.769  0.00  0.00    +0.030 A 
ENDBRANCH   1   2
BRANCH   1  12
ATOM     12  O   UNL     1     -15.431   1.780 -15.678  0.00  0.00    -0.263 OA
ATOM     13  H   UNL     1     -16.151   1.243 -16.044  0.00  0.00    +0.244 HD
ENDBRANCH   1  12
BRANCH   1  14
ATOM     14  O   UNL     1     -15.985   3.247 -17.644  0.00  0.00    -0.263 OA
ATOM     15  H   UNL     1     -15.453   3.892 -18.136  0.00  0.00    +0.244 HD
ENDBRANCH   1  14
BRANCH   1  16
ATOM     16  O   UNL     1     -16.193   4.182 -15.349  0.00  0.00    -0.363 OA
BRANCH  16  21
ATOM     17 CL   UNL     1     -16.094   3.654  -9.505  0.00  0.00    -0.084 Cl
ATOM     18  C   UNL     1     -16.139   3.794 -11.219  0.00  0.00    +0.041 A 
ATOM     19  C   UNL     1     -17.135   3.137 -11.942  0.00  0.00    +0.023 A 
ATOM     20  C   UNL     1     -17.174   3.248 -13.335  0.00  0.00    +0.050 A 
ATOM     21  C   UNL     1     -16.205   4.006 -13.992  0.00  0.00    +0.155 A 
ATOM     22  C   UNL     1     -15.222   4.680 -13.265  0.00  0.00    +0.050 A 
ATOM     23  C   UNL     1     -15.183   4.568 -11.875  0.00  0.00    +0.023 A 
ENDBRANCH  16  21
ENDBRANCH   1  16
TORSDOF 5
ENDMDL
MODEL 6
REMARK VINA RESULT:      -7.0      3.726      6.676
REMARK  Name = min_compound996.pdb
REMARK  5 active torsions:
REMARK  status: ('A' for Active; 'I' for Inactive)
REMARK    1  A    between atoms: _2  and  _9
REMARK    2  A    between atoms: _2  and  _19
REMARK    3  A    between atoms: _10  and  _19
REMARK    4  A    between atoms: _19  and  _20
REMARK    5  A    between atoms: _19  and  _21
REMARK                            x       y       z     vdW  Elec       q    Type
REMARK                         _______ _______ _______ _____ _____    ______ ____
ROOT
ATOM      1  S   UNL     1     -14.250   3.873 -16.143  0.00  0.00    -0.013 S 
ENDROOT
BRANCH   1   2
ATOM      2  C   UNL     1     -14.490   5.609 -16.397  0.00  0.00    +0.124 A 
ATOM      3  C   UNL     1     -15.380   6.292 -15.570  0.00  0.00    +0.097 A 
ATOM      4  C   UNL     1     -15.544   7.675 -15.818  0.00  0.00    +0.002 A 
ATOM      5  C   UNL     1     -14.837   8.313 -16.854  0.00  0.00    +0.010 A 
ATOM      6  C   UNL     1     -13.958   7.596 -17.660  0.00  0.00    +0.003 A 
ATOM      7  C   UNL     1     -16.425   8.402 -15.007  0.00  0.00    +0.011 A 
ATOM      8  C   UNL     1     -17.114   7.768 -13.983  0.00  0.00    +0.020 A 
ATOM      9  C   UNL     1     -16.899   6.419 -13.804  0.00  0.00    +0.111 A 
ATOM     10  N   UNL     1     -16.062   5.686 -14.571  0.00  0.00    -0.253 NA
ATOM     11  C   UNL     1     -13.781   6.239 -17.435  0.00  0.00    +0.030 A 
ENDBRANCH   1   2
BRANCH   1  12
ATOM     12  O   UNL     1     -15.460   3.213 -16.599  0.00  0.00    -0.263 OA
ATOM     13  H   UNL     1     -16.219   3.549 -16.099  0.00  0.00    +0.244 HD
ENDBRANCH   1  12
BRANCH   1  14
ATOM     14  O   UNL     1     -13.818   3.715 -14.762  0.00  0.00    -0.263 OA
ATOM     15  H   UNL     1     -13.931   4.555 -14.291  0.00  0.00    +0.244 HD
ENDBRANCH   1  14
BRANCH   1  16
ATOM     16  O   UNL     1     -12.981   3.474 -17.092  0.00  0.00    -0.363 OA
BRANCH  16  21
ATOM     17 CL   UNL     1      -9.587  -1.139 -15.814  0.00  0.00    -0.084 Cl
ATOM     18  C   UNL     1     -10.571   0.225 -16.174  0.00  0.00    +0.041 A 
ATOM     19  C   UNL     1     -10.291   1.457 -15.583  0.00  0.00    +0.023 A 
ATOM     20  C   UNL     1     -11.090   2.567 -15.872  0.00  0.00    +0.050 A 
ATOM     21  C   UNL     1     -12.171   2.428 -16.742  0.00  0.00    +0.155 A 
ATOM     22  C   UNL     1     -12.437   1.201 -17.350  0.00  0.00    +0.050 A 
ATOM     23  C   UNL     1     -11.640   0.092 -17.059  0.00  0.00    +0.023 A 
ENDBRANCH  16  21
ENDBRANCH   1  16
TORSDOF 5
ENDMDL
MODEL 7
REMARK VINA RESULT:      -6.9     11.508     13.503
REMARK  Name = min_compound996.pdb
REMARK  5 active torsions:
REMARK  status: ('A' for Active; 'I' for Inactive)
REMARK    1  A    between atoms: _2  and  _9
REMARK    2  A    between atoms: _2  and  _19
REMARK    3  A    between atoms: _10  and  _19
REMARK    4  A    between atoms: _19  and  _20
REMARK    5  A    between atoms: _19  and  _21
REMARK                            x       y       z     vdW  Elec       q    Type
REMARK                         _______ _______ _______ _____ _____    ______ ____
ROOT
ATOM      1  S   UNL     1     -16.527  -1.439  -2.651  0.00  0.00    -0.013 S 
ENDROOT
BRANCH   1   2
ATOM      2  C   UNL     1     -15.510  -0.443  -3.705  0.00  0.00    +0.124 A 
ATOM      3  C   UNL     1     -15.871  -0.296  -5.043  0.00  0.00    +0.097 A 
ATOM      4  C   UNL     1     -15.022   0.501  -5.845  0.00  0.00    +0.002 A 
ATOM      5  C   UNL     1     -13.873   1.107  -5.304  0.00  0.00    +0.010 A 
ATOM      6  C   UNL     1     -13.545   0.935  -3.963  0.00  0.00    +0.003 A 
ATOM      7  C   UNL     1     -15.349   0.681  -7.196  0.00  0.00    +0.011 A 
ATOM      8  C   UNL     1     -16.488   0.086  -7.722  0.00  0.00    +0.020 A 
ATOM      9  C   UNL     1     -17.264  -0.674  -6.876  0.00  0.00    +0.111 A 
ATOM     10  N   UNL     1     -16.974  -0.874  -5.571  0.00  0.00    -0.253 NA
ATOM     11  C   UNL     1     -14.363   0.158  -3.157  0.00  0.00    +0.030 A 
ENDBRANCH   1   2
BRANCH   1  12
ATOM     12  O   UNL     1     -16.661  -2.731  -3.300  0.00  0.00    -0.263 OA
ATOM     13  H   UNL     1     -15.781  -3.101  -3.467  0.00  0.00    +0.244 HD
ENDBRANCH   1  12
BRANCH   1  14
ATOM     14  O   UNL     1     -17.715  -0.650  -2.362  0.00  0.00    -0.263 OA
ATOM     15  H   UNL     1     -17.478   0.090  -1.782  0.00  0.00    +0.244 HD
ENDBRANCH   1  14
BRANCH   1  16
ATOM     16  O   UNL     1     -15.690  -1.576  -1.255  0.00  0.00    -0.363 OA
BRANCH  16  21
ATOM     17 CL   UNL     1     -13.015  -6.644   0.011  0.00  0.00    -0.084 Cl
ATOM     18  C   UNL     1     -13.781  -5.152  -0.371  0.00  0.00    +0.041 A 
ATOM     19  C   UNL     1     -13.162  -4.259  -1.246  0.00  0.00    +0.023 A 
ATOM     20  C   UNL     1     -13.782  -3.046  -1.558  0.00  0.00    +0.050 A 
ATOM     21  C   UNL     1     -15.012  -2.732  -0.979  0.00  0.00    +0.155 A 
ATOM     22  C   UNL     1     -15.640  -3.636  -0.121  0.00  0.00    +0.050 A 
ATOM     23  C   UNL     1     -15.020  -4.847   0.191  0.00  0.00    +0.023 A 
ENDBRANCH  16  21
ENDBRANCH   1  16
TORSDOF 5
ENDMDL
MODEL 8
REMARK VINA RESULT:      -6.9      4.195      4.636
REMARK  Name = min_compound996.pdb
REMARK  5 active torsions:
REMARK  status: ('A' for Active; 'I' for Inactive)
REMARK    1  A    between atoms: _2  and  _9
REMARK    2  A    between atoms: _2  and  _19
REMARK    3  A    between atoms: _10  and  _19
REMARK    4  A    between atoms: _19  and  _20
REMARK    5  A    between atoms: _19  and  _21
REMARK                            x       y       z     vdW  Elec       q    Type
REMARK                         _______ _______ _______ _____ _____    ______ ____
ROOT
ATOM      1  S   UNL     1     -13.416   4.122 -18.695  0.00  0.00    -0.013 S 
ENDROOT
BRANCH   1   2
ATOM      2  C   UNL     1     -12.070   3.848 -17.578  0.00  0.00    +0.124 A 
ATOM      3  C   UNL     1     -11.784   2.544 -17.178  0.00  0.00    +0.097 A 
ATOM      4  C   UNL     1     -10.706   2.377 -16.278  0.00  0.00    +0.002 A 
ATOM      5  C   UNL     1      -9.970   3.485 -15.818  0.00  0.00    +0.010 A 
ATOM      6  C   UNL     1     -10.286   4.772 -16.240  0.00  0.00    +0.003 A 
ATOM      7  C   UNL     1     -10.380   1.083 -15.853  0.00  0.00    +0.011 A 
ATOM      8  C   UNL     1     -11.106  -0.006 -16.316  0.00  0.00    +0.020 A 
ATOM      9  C   UNL     1     -12.141   0.238 -17.191  0.00  0.00    +0.111 A 
ATOM     10  N   UNL     1     -12.486   1.474 -17.616  0.00  0.00    -0.253 NA
ATOM     11  C   UNL     1     -11.339   4.960 -17.122  0.00  0.00    +0.030 A 
ENDBRANCH   1   2
BRANCH   1  12
ATOM     12  O   UNL     1     -14.635   4.016 -17.915  0.00  0.00    -0.263 OA
ATOM     13  H   UNL     1     -14.828   4.870 -17.499  0.00  0.00    +0.244 HD
ENDBRANCH   1  12
BRANCH   1  14
ATOM     14  O   UNL     1     -13.201   3.230 -19.825  0.00  0.00    -0.263 OA
ATOM     15  H   UNL     1     -14.042   2.812 -20.070  0.00  0.00    +0.244 HD
ENDBRANCH   1  14
BRANCH   1  16
ATOM     16  O   UNL     1     -13.211   5.648 -19.243  0.00  0.00    -0.363 OA
BRANCH  16  21
ATOM     17 CL   UNL     1     -16.951   9.902 -17.708  0.00  0.00    -0.084 Cl
ATOM     18  C   UNL     1     -15.868   8.650 -18.175  0.00  0.00    +0.041 A 
ATOM     19  C   UNL     1     -16.080   7.959 -19.368  0.00  0.00    +0.023 A 
ATOM     20  C   UNL     1     -15.202   6.940 -19.750  0.00  0.00    +0.050 A 
ATOM     21  C   UNL     1     -14.126   6.614 -18.924  0.00  0.00    +0.155 A 
ATOM     22  C   UNL     1     -13.902   7.321 -17.742  0.00  0.00    +0.050 A 
ATOM     23  C   UNL     1     -14.780   8.337 -17.361  0.00  0.00    +0.023 A 
ENDBRANCH  16  21
ENDBRANCH   1  16
TORSDOF 5
ENDMDL
MODEL 9
REMARK VINA RESULT:      -6.8      4.831      6.223
REMARK  Name = min_compound996.pdb
REMARK  5 active torsions:
REMARK  status: ('A' for Active; 'I' for Inactive)
REMARK    1  A    between atoms: _2  and  _9
REMARK    2  A    between atoms: _2  and  _19
REMARK    3  A    between atoms: _10  and  _19
REMARK    4  A    between atoms: _19  and  _20
REMARK    5  A    between atoms: _19  and  _21
REMARK                            x       y       z     vdW  Elec       q    Type
REMARK                         _______ _______ _______ _____ _____    ______ ____
ROOT
ATOM      1  S   UNL     1     -13.497   3.972 -18.572  0.00  0.00    -0.013 S 
ENDROOT
BRANCH   1   2
ATOM      2  C   UNL     1     -12.127   3.730 -17.476  0.00  0.00    +0.124 A 
ATOM      3  C   UNL     1     -11.782   2.431 -17.110  0.00  0.00    +0.097 A 
ATOM      4  C   UNL     1     -10.687   2.290 -16.225  0.00  0.00    +0.002 A 
ATOM      5  C   UNL     1      -9.994   3.417 -15.747  0.00  0.00    +0.010 A 
ATOM      6  C   UNL     1     -10.370   4.700 -16.135  0.00  0.00    +0.003 A 
ATOM      7  C   UNL     1     -10.301   1.001 -15.835  0.00  0.00    +0.011 A 
ATOM      8  C   UNL     1     -10.984  -0.107 -16.316  0.00  0.00    +0.020 A 
ATOM      9  C   UNL     1     -12.039   0.113 -17.174  0.00  0.00    +0.111 A 
ATOM     10  N   UNL     1     -12.442   1.342 -17.566  0.00  0.00    -0.253 NA
ATOM     11  C   UNL     1     -11.440   4.862 -17.001  0.00  0.00    +0.030 A 
ENDBRANCH   1   2
BRANCH   1  12
ATOM     12  O   UNL     1     -14.661   3.401 -17.919  0.00  0.00    -0.263 OA
ATOM     13  H   UNL     1     -15.149   4.101 -17.460  0.00  0.00    +0.244 HD
ENDBRANCH   1  12
BRANCH   1  14
ATOM     14  O   UNL     1     -13.077   3.468 -19.872  0.00  0.00    -0.263 OA
ATOM     15  H   UNL     1     -12.456   4.093 -20.276  0.00  0.00    +0.244 HD
ENDBRANCH   1  14
BRANCH   1  16
ATOM     16  O   UNL     1     -13.649   5.592 -18.713  0.00  0.00    -0.363 OA
BRANCH  16  21
ATOM     17 CL   UNL     1     -11.602   8.218 -23.546  0.00  0.00    -0.084 Cl
ATOM     18  C   UNL     1     -12.222   7.449 -22.138  0.00  0.00    +0.041 A 
ATOM     19  C   UNL     1     -13.561   7.058 -22.094  0.00  0.00    +0.023 A 
ATOM     20  C   UNL     1     -14.068   6.435 -20.951  0.00  0.00    +0.050 A 
ATOM     21  C   UNL     1     -13.231   6.219 -19.856  0.00  0.00    +0.155 A 
ATOM     22  C   UNL     1     -11.887   6.590 -19.909  0.00  0.00    +0.050 A 
ATOM     23  C   UNL     1     -11.381   7.215 -21.051  0.00  0.00    +0.023 A 
ENDBRANCH  16  21
ENDBRANCH   1  16
TORSDOF 5
ENDMDL
