MODEL 1
REMARK VINA RESULT:      -8.2      0.000      0.000
REMARK  Name = min_compound936.pdb
REMARK  3 active torsions:
REMARK  status: ('A' for Active; 'I' for Inactive)
REMARK    1  A    between atoms: _6  and  _19
REMARK    2  A    between atoms: _10  and  _17
REMARK    3  A    between atoms: _13  and  _18
REMARK                            x       y       z     vdW  Elec       q    Type
REMARK                         _______ _______ _______ _____ _____    ______ ____
ROOT
ATOM      1 CL   UNL     1     -11.417  -0.423 -17.190  0.00  0.00    -0.114 Cl
ATOM      2  C   UNL     1     -11.912   1.033 -16.360  0.00  0.00    +0.147 C 
ATOM      3  C   UNL     1     -13.118   1.534 -16.679  0.00  0.00    +0.034 C 
ATOM      4  C   UNL     1     -13.744   2.811 -15.887  0.00  0.00    -0.024 C 
ATOM      5  C   UNL     1     -14.945   1.941 -15.667  0.00  0.00    +0.011 C 
ATOM      6  C   UNL     1     -14.628   3.420 -16.806  0.00  0.00    +0.007 C 
ATOM      7  C   UNL     1     -15.261   4.646 -16.925  0.00  0.00    +0.008 C 
ATOM      8  C   UNL     1     -14.059   5.516 -17.144  0.00  0.00    +0.044 C 
ATOM      9  C   UNL     1     -12.695   4.757 -17.215  0.00  0.00    +0.185 C 
ATOM     10  O   UNL     1     -11.776   5.839 -17.288  0.00  0.00    -0.461 OA
ATOM     11  C   UNL     1     -12.379   6.814 -18.056  0.00  0.00    +0.311 C 
ATOM     12  O   UNL     1     -11.804   7.804 -18.483  0.00  0.00    -0.251 OA
ATOM     13  C   UNL     1     -13.854   6.485 -18.287  0.00  0.00    +0.101 C 
ATOM     14  C   UNL     1     -14.746   7.708 -18.205  0.00  0.00    +0.019 C 
ATOM     15  C   UNL     1     -12.541   3.680 -16.107  0.00  0.00    +0.046 C 
ATOM     16  C   UNL     1     -11.181   3.196 -15.698  0.00  0.00    +0.061 C 
ATOM     17  C   UNL     1      -9.979   4.066 -15.918  0.00  0.00    +0.016 C 
ATOM     18  C   UNL     1     -10.978   1.849 -15.561  0.00  0.00    +0.154 C 
ATOM     19  O   UNL     1      -9.983   1.194 -15.143  0.00  0.00    -0.296 OA
ENDROOT
TORSDOF 0
ENDMDL
MODEL 2
REMARK VINA RESULT:      -7.7      2.646      5.885
REMARK  Name = min_compound936.pdb
REMARK  3 active torsions:
REMARK  status: ('A' for Active; 'I' for Inactive)
REMARK    1  A    between atoms: _6  and  _19
REMARK    2  A    between atoms: _10  and  _17
REMARK    3  A    between atoms: _13  and  _18
REMARK                            x       y       z     vdW  Elec       q    Type
REMARK                         _______ _______ _______ _____ _____    ______ ____
ROOT
ATOM      1 CL   UNL     1     -14.611   6.171 -19.065  0.00  0.00    -0.114 Cl
ATOM      2  C   UNL     1     -13.875   5.406 -17.676  0.00  0.00    +0.147 C 
ATOM      3  C   UNL     1     -12.600   5.000 -17.812  0.00  0.00    +0.034 C 
ATOM      4  C   UNL     1     -11.766   4.389 -16.554  0.00  0.00    -0.024 C 
ATOM      5  C   UNL     1     -10.732   5.423 -16.885  0.00  0.00    +0.011 C 
ATOM      6  C   UNL     1     -10.789   3.547 -17.132  0.00  0.00    +0.007 C 
ATOM      7  C   UNL     1      -9.955   2.532 -16.693  0.00  0.00    +0.008 C 
ATOM      8  C   UNL     1     -10.990   1.498 -16.362  0.00  0.00    +0.044 C 
ATOM      9  C   UNL     1     -12.463   1.910 -16.678  0.00  0.00    +0.185 C 
ATOM     10  O   UNL     1     -13.183   0.808 -16.140  0.00  0.00    -0.461 OA
ATOM     11  C   UNL     1     -12.421  -0.316 -16.385  0.00  0.00    +0.311 C 
ATOM     12  O   UNL     1     -12.817  -1.461 -16.229  0.00  0.00    -0.251 OA
ATOM     13  C   UNL     1     -11.024   0.074 -16.869  0.00  0.00    +0.101 C 
ATOM     14  C   UNL     1      -9.935  -0.800 -16.278  0.00  0.00    +0.019 C 
ATOM     15  C   UNL     1     -12.801   3.355 -16.224  0.00  0.00    +0.046 C 
ATOM     16  C   UNL     1     -14.225   3.768 -15.989  0.00  0.00    +0.061 C 
ATOM     17  C   UNL     1     -15.260   2.733 -15.658  0.00  0.00    +0.016 C 
ATOM     18  C   UNL     1     -14.656   4.959 -16.507  0.00  0.00    +0.154 C 
ATOM     19  O   UNL     1     -15.749   5.578 -16.378  0.00  0.00    -0.296 OA
ENDROOT
TORSDOF 0
ENDMDL
MODEL 3
REMARK VINA RESULT:      -7.2      3.184      5.904
REMARK  Name = min_compound936.pdb
REMARK  3 active torsions:
REMARK  status: ('A' for Active; 'I' for Inactive)
REMARK    1  A    between atoms: _6  and  _19
REMARK    2  A    between atoms: _10  and  _17
REMARK    3  A    between atoms: _13  and  _18
REMARK                            x       y       z     vdW  Elec       q    Type
REMARK                         _______ _______ _______ _____ _____    ______ ____
ROOT
ATOM      1 CL   UNL     1     -12.089   6.492 -21.861  0.00  0.00    -0.114 Cl
ATOM      2  C   UNL     1     -12.738   5.616 -20.493  0.00  0.00    +0.147 C 
ATOM      3  C   UNL     1     -12.056   5.705 -19.338  0.00  0.00    +0.034 C 
ATOM      4  C   UNL     1     -12.625   5.040 -17.965  0.00  0.00    -0.024 C 
ATOM      5  C   UNL     1     -12.436   6.399 -17.363  0.00  0.00    +0.011 C 
ATOM      6  C   UNL     1     -11.480   4.776 -17.179  0.00  0.00    +0.007 C 
ATOM      7  C   UNL     1     -11.182   4.001 -16.071  0.00  0.00    +0.008 C 
ATOM      8  C   UNL     1     -11.371   2.640 -16.673  0.00  0.00    +0.044 C 
ATOM      9  C   UNL     1     -11.730   2.632 -18.194  0.00  0.00    +0.185 C 
ATOM     10  O   UNL     1     -11.970   1.249 -18.418  0.00  0.00    -0.461 OA
ATOM     11  C   UNL     1     -11.063   0.562 -17.636  0.00  0.00    +0.311 C 
ATOM     12  O   UNL     1     -10.856  -0.639 -17.720  0.00  0.00    -0.251 OA
ATOM     13  C   UNL     1     -10.368   1.509 -16.657  0.00  0.00    +0.101 C 
ATOM     14  C   UNL     1     -10.177   0.895 -15.284  0.00  0.00    +0.019 C 
ATOM     15  C   UNL     1     -12.813   3.679 -18.568  0.00  0.00    +0.046 C 
ATOM     16  C   UNL     1     -13.629   3.519 -19.817  0.00  0.00    +0.061 C 
ATOM     17  C   UNL     1     -13.818   2.158 -20.420  0.00  0.00    +0.016 C 
ATOM     18  C   UNL     1     -13.805   4.607 -20.630  0.00  0.00    +0.154 C 
ATOM     19  O   UNL     1     -14.510   4.770 -21.664  0.00  0.00    -0.296 OA
ENDROOT
TORSDOF 0
ENDMDL
MODEL 4
REMARK VINA RESULT:      -7.0     12.785     15.120
REMARK  Name = min_compound936.pdb
REMARK  3 active torsions:
REMARK  status: ('A' for Active; 'I' for Inactive)
REMARK    1  A    between atoms: _6  and  _19
REMARK    2  A    between atoms: _10  and  _17
REMARK    3  A    between atoms: _13  and  _18
REMARK                            x       y       z     vdW  Elec       q    Type
REMARK                         _______ _______ _______ _____ _____    ______ ____
ROOT
ATOM      1 CL   UNL     1     -14.122   1.150  -7.572  0.00  0.00    -0.114 Cl
ATOM      2  C   UNL     1     -14.843   1.126  -5.979  0.00  0.00    +0.147 C 
ATOM      3  C   UNL     1     -14.178   0.455  -5.022  0.00  0.00    +0.034 C 
ATOM      4  C   UNL     1     -14.681   0.465  -3.475  0.00  0.00    -0.024 C 
ATOM      5  C   UNL     1     -13.287   0.909  -3.144  0.00  0.00    +0.011 C 
ATOM      6  C   UNL     1     -14.192  -0.738  -2.918  0.00  0.00    +0.007 C 
ATOM      7  C   UNL     1     -14.454  -1.501  -1.792  0.00  0.00    +0.008 C 
ATOM      8  C   UNL     1     -15.848  -1.945  -2.122  0.00  0.00    +0.044 C 
ATOM      9  C   UNL     1     -16.382  -1.472  -3.512  0.00  0.00    +0.185 C 
ATOM     10  O   UNL     1     -17.729  -1.925  -3.462  0.00  0.00    -0.461 OA
ATOM     11  C   UNL     1     -17.713  -3.132  -2.794  0.00  0.00    +0.311 C 
ATOM     12  O   UNL     1     -18.665  -3.895  -2.733  0.00  0.00    -0.251 OA
ATOM     13  C   UNL     1     -16.350  -3.371  -2.144  0.00  0.00    +0.101 C 
ATOM     14  C   UNL     1     -16.460  -3.990  -0.765  0.00  0.00    +0.019 C 
ATOM     15  C   UNL     1     -16.075   0.021  -3.805  0.00  0.00    +0.046 C 
ATOM     16  C   UNL     1     -16.885   0.783  -4.813  0.00  0.00    +0.061 C 
ATOM     17  C   UNL     1     -18.280   0.339  -5.143  0.00  0.00    +0.016 C 
ATOM     18  C   UNL     1     -16.230   1.561  -5.728  0.00  0.00    +0.154 C 
ATOM     19  O   UNL     1     -16.661   2.364  -6.602  0.00  0.00    -0.296 OA
ENDROOT
TORSDOF 0
ENDMDL
MODEL 5
REMARK VINA RESULT:      -6.8     10.981     12.305
REMARK  Name = min_compound936.pdb
REMARK  3 active torsions:
REMARK  status: ('A' for Active; 'I' for Inactive)
REMARK    1  A    between atoms: _6  and  _19
REMARK    2  A    between atoms: _10  and  _17
REMARK    3  A    between atoms: _13  and  _18
REMARK                            x       y       z     vdW  Elec       q    Type
REMARK                         _______ _______ _______ _____ _____    ______ ____
ROOT
ATOM      1 CL   UNL     1     -20.896  -0.230  -7.760  0.00  0.00    -0.114 Cl
ATOM      2  C   UNL     1     -19.295   0.449  -7.947  0.00  0.00    +0.147 C 
ATOM      3  C   UNL     1     -18.279  -0.231  -7.387  0.00  0.00    +0.034 C 
ATOM      4  C   UNL     1     -16.733   0.231  -7.598  0.00  0.00    -0.024 C 
ATOM      5  C   UNL     1     -16.494  -1.178  -8.052  0.00  0.00    +0.011 C 
ATOM      6  C   UNL     1     -16.043  -0.254  -6.463  0.00  0.00    +0.007 C 
ATOM      7  C   UNL     1     -14.825  -0.010  -5.851  0.00  0.00    +0.008 C 
ATOM      8  C   UNL     1     -15.064   1.400  -5.396  0.00  0.00    +0.044 C 
ATOM      9  C   UNL     1     -16.488   1.963  -5.704  0.00  0.00    +0.185 C 
ATOM     10  O   UNL     1     -16.350   3.316  -5.287  0.00  0.00    -0.461 OA
ATOM     11  C   UNL     1     -15.537   3.301  -4.172  0.00  0.00    +0.311 C 
ATOM     12  O   UNL     1     -15.359   4.263  -3.440  0.00  0.00    -0.251 OA
ATOM     13  C   UNL     1     -14.896   1.925  -3.989  0.00  0.00    +0.101 C 
ATOM     14  C   UNL     1     -13.448   2.008  -3.547  0.00  0.00    +0.019 C 
ATOM     15  C   UNL     1     -16.972   1.640  -7.143  0.00  0.00    +0.046 C 
ATOM     16  C   UNL     1     -18.046   2.465  -7.790  0.00  0.00    +0.061 C 
ATOM     17  C   UNL     1     -18.285   3.874  -7.336  0.00  0.00    +0.016 C 
ATOM     18  C   UNL     1     -19.067   1.821  -8.437  0.00  0.00    +0.154 C 
ATOM     19  O   UNL     1     -20.022   2.263  -9.134  0.00  0.00    -0.296 OA
ENDROOT
TORSDOF 0
ENDMDL
MODEL 6
REMARK VINA RESULT:      -6.7      2.962      4.301
REMARK  Name = min_compound936.pdb
REMARK  3 active torsions:
REMARK  status: ('A' for Active; 'I' for Inactive)
REMARK    1  A    between atoms: _6  and  _19
REMARK    2  A    between atoms: _10  and  _17
REMARK    3  A    between atoms: _13  and  _18
REMARK                            x       y       z     vdW  Elec       q    Type
REMARK                         _______ _______ _______ _____ _____    ______ ____
ROOT
ATOM      1 CL   UNL     1     -10.089   4.243 -16.263  0.00  0.00    -0.114 Cl
ATOM      2  C   UNL     1     -11.760   4.509 -16.703  0.00  0.00    +0.147 C 
ATOM      3  C   UNL     1     -12.063   5.703 -17.242  0.00  0.00    +0.034 C 
ATOM      4  C   UNL     1     -13.555   6.023 -17.807  0.00  0.00    -0.024 C 
ATOM      5  C   UNL     1     -12.866   6.415 -19.079  0.00  0.00    +0.011 C 
ATOM      6  C   UNL     1     -13.694   7.426 -17.711  0.00  0.00    +0.007 C 
ATOM      7  C   UNL     1     -14.741   8.334 -17.738  0.00  0.00    +0.008 C 
ATOM      8  C   UNL     1     -15.431   7.942 -16.465  0.00  0.00    +0.044 C 
ATOM      9  C   UNL     1     -14.724   6.813 -15.649  0.00  0.00    +0.185 C 
ATOM     10  O   UNL     1     -15.668   6.587 -14.609  0.00  0.00    -0.461 OA
ATOM     11  C   UNL     1     -16.204   7.818 -14.291  0.00  0.00    +0.311 C 
ATOM     12  O   UNL     1     -16.907   8.029 -13.315  0.00  0.00    -0.251 OA
ATOM     13  C   UNL     1     -15.799   8.867 -15.328  0.00  0.00    +0.101 C 
ATOM     14  C   UNL     1     -16.929   9.819 -15.668  0.00  0.00    +0.019 C 
ATOM     15  C   UNL     1     -14.245   5.631 -16.534  0.00  0.00    +0.046 C 
ATOM     16  C   UNL     1     -13.997   4.279 -15.932  0.00  0.00    +0.061 C 
ATOM     17  C   UNL     1     -14.687   3.887 -14.659  0.00  0.00    +0.016 C 
ATOM     18  C   UNL     1     -12.848   3.614 -16.266  0.00  0.00    +0.154 C 
ATOM     19  O   UNL     1     -12.449   2.449 -15.989  0.00  0.00    -0.296 OA
ENDROOT
TORSDOF 0
ENDMDL
MODEL 7
REMARK VINA RESULT:      -6.6      2.661      5.235
REMARK  Name = min_compound936.pdb
REMARK  3 active torsions:
REMARK  status: ('A' for Active; 'I' for Inactive)
REMARK    1  A    between atoms: _6  and  _19
REMARK    2  A    between atoms: _10  and  _17
REMARK    3  A    between atoms: _13  and  _18
REMARK                            x       y       z     vdW  Elec       q    Type
REMARK                         _______ _______ _______ _____ _____    ______ ____
ROOT
ATOM      1 CL   UNL     1     -15.248   8.266 -14.635  0.00  0.00    -0.114 Cl
ATOM      2  C   UNL     1     -15.108   7.040 -15.874  0.00  0.00    +0.147 C 
ATOM      3  C   UNL     1     -15.389   5.776 -15.511  0.00  0.00    +0.034 C 
ATOM      4  C   UNL     1     -15.417   4.567 -16.601  0.00  0.00    -0.024 C 
ATOM      5  C   UNL     1     -16.790   4.276 -16.073  0.00  0.00    +0.011 C 
ATOM      6  C   UNL     1     -15.127   3.397 -15.864  0.00  0.00    +0.007 C 
ATOM      7  C   UNL     1     -14.723   2.104 -16.154  0.00  0.00    +0.008 C 
ATOM      8  C   UNL     1     -13.350   2.395 -16.682  0.00  0.00    +0.044 C 
ATOM      9  C   UNL     1     -12.927   3.898 -16.637  0.00  0.00    +0.185 C 
ATOM     10  O   UNL     1     -11.676   3.858 -17.312  0.00  0.00    -0.461 OA
ATOM     11  C   UNL     1     -11.071   2.673 -16.944  0.00  0.00    +0.311 C 
ATOM     12  O   UNL     1      -9.906   2.394 -17.184  0.00  0.00    -0.251 OA
ATOM     13  C   UNL     1     -12.059   1.768 -16.207  0.00  0.00    +0.101 C 
ATOM     14  C   UNL     1     -11.920   0.310 -16.597  0.00  0.00    +0.019 C 
ATOM     15  C   UNL     1     -14.044   4.859 -17.128  0.00  0.00    +0.046 C 
ATOM     16  C   UNL     1     -13.704   6.237 -17.616  0.00  0.00    +0.061 C 
ATOM     17  C   UNL     1     -12.331   6.528 -18.144  0.00  0.00    +0.016 C 
ATOM     18  C   UNL     1     -14.454   7.293 -17.172  0.00  0.00    +0.154 C 
ATOM     19  O   UNL     1     -14.447   8.514 -17.492  0.00  0.00    -0.296 OA
ENDROOT
TORSDOF 0
ENDMDL
MODEL 8
REMARK VINA RESULT:      -6.5     11.341     13.161
REMARK  Name = min_compound936.pdb
REMARK  3 active torsions:
REMARK  status: ('A' for Active; 'I' for Inactive)
REMARK    1  A    between atoms: _6  and  _19
REMARK    2  A    between atoms: _10  and  _17
REMARK    3  A    between atoms: _13  and  _18
REMARK                            x       y       z     vdW  Elec       q    Type
REMARK                         _______ _______ _______ _____ _____    ______ ____
ROOT
ATOM      1 CL   UNL     1     -13.423   2.627  -3.392  0.00  0.00    -0.114 Cl
ATOM      2  C   UNL     1     -14.076   1.261  -4.268  0.00  0.00    +0.147 C 
ATOM      3  C   UNL     1     -14.584   1.510  -5.488  0.00  0.00    +0.034 C 
ATOM      4  C   UNL     1     -15.105   0.305  -6.451  0.00  0.00    -0.024 C 
ATOM      5  C   UNL     1     -14.192   0.891  -7.486  0.00  0.00    +0.011 C 
ATOM      6  C   UNL     1     -16.075   0.896  -7.292  0.00  0.00    +0.007 C 
ATOM      7  C   UNL     1     -17.090   0.447  -8.121  0.00  0.00    +0.008 C 
ATOM      8  C   UNL     1     -18.003  -0.140  -7.085  0.00  0.00    +0.044 C 
ATOM      9  C   UNL     1     -17.526   0.032  -5.607  0.00  0.00    +0.185 C 
ATOM     10  O   UNL     1     -18.505  -0.726  -4.908  0.00  0.00    -0.461 OA
ATOM     11  C   UNL     1     -19.701  -0.524  -5.566  0.00  0.00    +0.311 C 
ATOM     12  O   UNL     1     -20.789  -0.870  -5.132  0.00  0.00    -0.251 OA
ATOM     13  C   UNL     1     -19.469   0.180  -6.903  0.00  0.00    +0.101 C 
ATOM     14  C   UNL     1     -20.346  -0.368  -8.013  0.00  0.00    +0.019 C 
ATOM     15  C   UNL     1     -16.018  -0.281  -5.415  0.00  0.00    +0.046 C 
ATOM     16  C   UNL     1     -15.481  -0.645  -4.061  0.00  0.00    +0.061 C 
ATOM     17  C   UNL     1     -16.394  -1.231  -3.026  0.00  0.00    +0.016 C 
ATOM     18  C   UNL     1     -14.329  -0.044  -3.630  0.00  0.00    +0.154 C 
ATOM     19  O   UNL     1     -13.623  -0.237  -2.601  0.00  0.00    -0.296 OA
ENDROOT
TORSDOF 0
ENDMDL
MODEL 9
REMARK VINA RESULT:      -6.4     11.373     12.581
REMARK  Name = min_compound936.pdb
REMARK  3 active torsions:
REMARK  status: ('A' for Active; 'I' for Inactive)
REMARK    1  A    between atoms: _6  and  _19
REMARK    2  A    between atoms: _10  and  _17
REMARK    3  A    between atoms: _13  and  _18
REMARK                            x       y       z     vdW  Elec       q    Type
REMARK                         _______ _______ _______ _____ _____    ______ ____
ROOT
ATOM      1 CL   UNL     1     -14.798  -2.209  -3.540  0.00  0.00    -0.114 Cl
ATOM      2  C   UNL     1     -14.740  -0.746  -4.496  0.00  0.00    +0.147 C 
ATOM      3  C   UNL     1     -14.901   0.416  -3.838  0.00  0.00    +0.034 C 
ATOM      4  C   UNL     1     -14.741   1.848  -4.594  0.00  0.00    -0.024 C 
ATOM      5  C   UNL     1     -13.761   2.182  -3.510  0.00  0.00    +0.011 C 
ATOM      6  C   UNL     1     -15.534   2.750  -3.850  0.00  0.00    +0.007 C 
ATOM      7  C   UNL     1     -16.078   4.008  -4.052  0.00  0.00    +0.008 C 
ATOM      8  C   UNL     1     -17.059   3.674  -5.137  0.00  0.00    +0.044 C 
ATOM      9  C   UNL     1     -17.123   2.163  -5.529  0.00  0.00    +0.185 C 
ATOM     10  O   UNL     1     -18.013   2.199  -6.638  0.00  0.00    -0.461 OA
ATOM     11  C   UNL     1     -18.957   3.164  -6.351  0.00  0.00    +0.311 C 
ATOM     12  O   UNL     1     -19.982   3.333  -6.994  0.00  0.00    -0.251 OA
ATOM     13  C   UNL     1     -18.538   3.984  -5.130  0.00  0.00    +0.101 C 
ATOM     14  C   UNL     1     -18.843   5.461  -5.285  0.00  0.00    +0.019 C 
ATOM     15  C   UNL     1     -15.721   1.513  -5.679  0.00  0.00    +0.046 C 
ATOM     16  C   UNL     1     -15.542   0.265  -6.492  0.00  0.00    +0.061 C 
ATOM     17  C   UNL     1     -16.523  -0.070  -7.577  0.00  0.00    +0.016 C 
ATOM     18  C   UNL     1     -14.795  -0.757  -5.970  0.00  0.00    +0.154 C 
ATOM     19  O   UNL     1     -14.412  -1.850  -6.471  0.00  0.00    -0.296 OA
ENDROOT
TORSDOF 0
ENDMDL
