MODEL 1
REMARK VINA RESULT:      -6.8      0.000      0.000
REMARK  Name = min_compound922.pdb
REMARK  4 active torsions:
REMARK  status: ('A' for Active; 'I' for Inactive)
REMARK    1  A    between atoms: _1  and  _15
REMARK    2  A    between atoms: _2  and  _16
REMARK    3  A    between atoms: _3  and  _17
REMARK    4  A    between atoms: _6  and  _18
REMARK                            x       y       z     vdW  Elec       q    Type
REMARK                         _______ _______ _______ _____ _____    ______ ____
ROOT
ATOM      1  C   UNL     1     -10.591   1.392 -15.910  0.00  0.00    +0.123 A 
ATOM      2  C   UNL     1     -11.109   0.278 -16.579  0.00  0.00    -0.008 A 
ATOM      3  C   UNL     1     -10.770  -1.118 -16.134  0.00  0.00    +0.047 C 
ATOM      4  C   UNL     1     -11.921   0.472 -17.712  0.00  0.00    +0.015 A 
ATOM      5  C   UNL     1     -12.252   1.752 -18.164  0.00  0.00    -0.023 A 
ATOM      6  C   UNL     1     -11.727   2.848 -17.455  0.00  0.00    +0.015 A 
ATOM      7  C   UNL     1     -10.895   2.689 -16.331  0.00  0.00    -0.008 A 
ATOM      8  C   UNL     1     -10.356   3.909 -15.641  0.00  0.00    +0.047 C 
ENDROOT
BRANCH   5   9
ATOM      9  C   UNL     1     -13.084   2.051 -19.352  0.00  0.00    +0.028 C 
ATOM     10  C   UNL     1     -14.209   2.760 -19.533  0.00  0.00    +0.077 C 
ATOM     11  C   UNL     1     -14.816   2.866 -20.895  0.00  0.00    +0.256 C 
ATOM     12  N   UNL     1     -15.962   3.606 -20.838  0.00  0.00    -0.270 N 
ATOM     13  H   UNL     1     -16.501   3.769 -21.675  0.00  0.00    +0.156 HD
ATOM     14  C   UNL     1     -16.340   4.104 -19.632  0.00  0.00    +0.118 C 
ATOM     15  S   UNL     1     -17.709   5.004 -19.398  0.00  0.00    -0.027 S 
ATOM     16  O   UNL     1     -14.367   2.369 -21.916  0.00  0.00    -0.269 OA
ATOM     17  S   UNL     1     -15.176   3.645 -18.415  0.00  0.00    -0.061 S 
ENDBRANCH   5   9
BRANCH   1  18
ATOM     18  O   UNL     1      -9.774   1.152 -14.838  0.00  0.00    -0.506 OA
ATOM     19  H   UNL     1      -9.183   1.908 -14.702  0.00  0.00    +0.292 HD
ENDBRANCH   1  18
TORSDOF 2
ENDMDL
MODEL 2
REMARK VINA RESULT:      -6.7      0.240      2.110
REMARK  Name = min_compound922.pdb
REMARK  4 active torsions:
REMARK  status: ('A' for Active; 'I' for Inactive)
REMARK    1  A    between atoms: _1  and  _15
REMARK    2  A    between atoms: _2  and  _16
REMARK    3  A    between atoms: _3  and  _17
REMARK    4  A    between atoms: _6  and  _18
REMARK                            x       y       z     vdW  Elec       q    Type
REMARK                         _______ _______ _______ _____ _____    ______ ____
ROOT
ATOM      1  C   UNL     1     -10.625   1.421 -15.952  0.00  0.00    +0.123 A 
ATOM      2  C   UNL     1     -10.873   2.731 -16.377  0.00  0.00    -0.008 A 
ATOM      3  C   UNL     1     -10.341   3.907 -15.605  0.00  0.00    +0.047 C 
ATOM      4  C   UNL     1     -11.669   2.945 -17.517  0.00  0.00    +0.015 A 
ATOM      5  C   UNL     1     -12.189   1.880 -18.257  0.00  0.00    -0.023 A 
ATOM      6  C   UNL     1     -11.905   0.576 -17.809  0.00  0.00    +0.015 A 
ATOM      7  C   UNL     1     -11.129   0.328 -16.662  0.00  0.00    -0.008 A 
ATOM      8  C   UNL     1     -10.887  -1.092 -16.236  0.00  0.00    +0.047 C 
ENDROOT
BRANCH   5   9
ATOM      9  C   UNL     1     -13.049   2.010 -19.456  0.00  0.00    +0.028 C 
ATOM     10  C   UNL     1     -14.178   2.688 -19.711  0.00  0.00    +0.077 C 
ATOM     11  C   UNL     1     -14.816   2.600 -21.060  0.00  0.00    +0.256 C 
ATOM     12  N   UNL     1     -15.961   3.343 -21.083  0.00  0.00    -0.270 N 
ATOM     13  H   UNL     1     -16.519   3.386 -21.922  0.00  0.00    +0.156 HD
ATOM     14  C   UNL     1     -16.312   4.009 -19.952  0.00  0.00    +0.118 C 
ATOM     15  S   UNL     1     -17.677   4.936 -19.817  0.00  0.00    -0.027 S 
ATOM     16  O   UNL     1     -14.389   1.962 -22.009  0.00  0.00    -0.269 OA
ATOM     17  S   UNL     1     -15.120   3.724 -18.708  0.00  0.00    -0.061 S 
ENDBRANCH   5   9
BRANCH   1  18
ATOM     18  O   UNL     1      -9.879   1.264 -14.815  0.00  0.00    -0.506 OA
ATOM     19  H   UNL     1      -9.704   0.323 -14.666  0.00  0.00    +0.292 HD
ENDBRANCH   1  18
TORSDOF 2
ENDMDL
MODEL 3
REMARK VINA RESULT:      -6.5     15.145     17.124
REMARK  Name = min_compound922.pdb
REMARK  4 active torsions:
REMARK  status: ('A' for Active; 'I' for Inactive)
REMARK    1  A    between atoms: _1  and  _15
REMARK    2  A    between atoms: _2  and  _16
REMARK    3  A    between atoms: _3  and  _17
REMARK    4  A    between atoms: _6  and  _18
REMARK                            x       y       z     vdW  Elec       q    Type
REMARK                         _______ _______ _______ _____ _____    ______ ____
ROOT
ATOM      1  C   UNL     1     -14.224   0.594  -5.189  0.00  0.00    +0.123 A 
ATOM      2  C   UNL     1     -14.820  -0.656  -5.389  0.00  0.00    -0.008 A 
ATOM      3  C   UNL     1     -15.177  -1.129  -6.771  0.00  0.00    +0.047 C 
ATOM      4  C   UNL     1     -15.129  -1.456  -4.274  0.00  0.00    +0.015 A 
ATOM      5  C   UNL     1     -14.822  -1.049  -2.973  0.00  0.00    -0.023 A 
ATOM      6  C   UNL     1     -14.207   0.207  -2.812  0.00  0.00    +0.015 A 
ATOM      7  C   UNL     1     -13.903   1.041  -3.905  0.00  0.00    -0.008 A 
ATOM      8  C   UNL     1     -13.265   2.376  -3.650  0.00  0.00    +0.047 C 
ENDROOT
BRANCH   5   9
ATOM      9  C   UNL     1     -15.124  -1.815  -1.742  0.00  0.00    +0.028 C 
ATOM     10  C   UNL     1     -14.794  -3.045  -1.319  0.00  0.00    +0.077 C 
ATOM     11  C   UNL     1     -15.278  -3.535   0.007  0.00  0.00    +0.256 C 
ATOM     12  N   UNL     1     -14.847  -4.814   0.217  0.00  0.00    -0.270 N 
ATOM     13  H   UNL     1     -15.094  -5.298   1.066  0.00  0.00    +0.156 HD
ATOM     14  C   UNL     1     -14.090  -5.398  -0.749  0.00  0.00    +0.118 C 
ATOM     15  S   UNL     1     -13.508  -6.944  -0.650  0.00  0.00    -0.027 S 
ATOM     16  O   UNL     1     -15.958  -2.900   0.797  0.00  0.00    -0.269 OA
ATOM     17  S   UNL     1     -13.848  -4.276  -2.065  0.00  0.00    -0.061 S 
ENDBRANCH   5   9
BRANCH   1  18
ATOM     18  O   UNL     1     -13.978   1.354  -6.301  0.00  0.00    -0.506 OA
ATOM     19  H   UNL     1     -13.740   2.255  -6.036  0.00  0.00    +0.292 HD
ENDBRANCH   1  18
TORSDOF 2
ENDMDL
MODEL 4
REMARK VINA RESULT:      -6.3     10.753     12.220
REMARK  Name = min_compound922.pdb
REMARK  4 active torsions:
REMARK  status: ('A' for Active; 'I' for Inactive)
REMARK    1  A    between atoms: _1  and  _15
REMARK    2  A    between atoms: _2  and  _16
REMARK    3  A    between atoms: _3  and  _17
REMARK    4  A    between atoms: _6  and  _18
REMARK                            x       y       z     vdW  Elec       q    Type
REMARK                         _______ _______ _______ _____ _____    ______ ____
ROOT
ATOM      1  C   UNL     1     -16.692   5.690  -9.101  0.00  0.00    +0.123 A 
ATOM      2  C   UNL     1     -16.070   4.904 -10.077  0.00  0.00    -0.008 A 
ATOM      3  C   UNL     1     -15.488   5.529 -11.316  0.00  0.00    +0.047 C 
ATOM      4  C   UNL     1     -16.032   3.507  -9.916  0.00  0.00    +0.015 A 
ATOM      5  C   UNL     1     -16.568   2.887  -8.785  0.00  0.00    -0.023 A 
ATOM      6  C   UNL     1     -17.171   3.710  -7.815  0.00  0.00    +0.015 A 
ATOM      7  C   UNL     1     -17.244   5.109  -7.956  0.00  0.00    -0.008 A 
ATOM      8  C   UNL     1     -17.922   5.917  -6.887  0.00  0.00    +0.047 C 
ENDROOT
BRANCH   5   9
ATOM      9  C   UNL     1     -16.588   1.427  -8.537  0.00  0.00    +0.028 C 
ATOM     10  C   UNL     1     -16.179   0.660  -7.515  0.00  0.00    +0.077 C 
ATOM     11  C   UNL     1     -16.341  -0.824  -7.579  0.00  0.00    +0.256 C 
ATOM     12  N   UNL     1     -15.833  -1.398  -6.450  0.00  0.00    -0.270 N 
ATOM     13  H   UNL     1     -15.857  -2.400  -6.337  0.00  0.00    +0.156 HD
ATOM     14  C   UNL     1     -15.302  -0.581  -5.503  0.00  0.00    +0.118 C 
ATOM     15  S   UNL     1     -14.634  -1.125  -4.090  0.00  0.00    -0.027 S 
ATOM     16  O   UNL     1     -16.849  -1.445  -8.499  0.00  0.00    -0.269 OA
ATOM     17  S   UNL     1     -15.438   1.082  -6.017  0.00  0.00    -0.061 S 
ENDBRANCH   5   9
BRANCH   1  18
ATOM     18  O   UNL     1     -16.739   7.040  -9.322  0.00  0.00    -0.506 OA
ATOM     19  H   UNL     1     -15.882   7.347  -9.650  0.00  0.00    +0.292 HD
ENDBRANCH   1  18
TORSDOF 2
ENDMDL
MODEL 5
REMARK VINA RESULT:      -6.2      4.429      4.710
REMARK  Name = min_compound922.pdb
REMARK  4 active torsions:
REMARK  status: ('A' for Active; 'I' for Inactive)
REMARK    1  A    between atoms: _1  and  _15
REMARK    2  A    between atoms: _2  and  _16
REMARK    3  A    between atoms: _3  and  _17
REMARK    4  A    between atoms: _6  and  _18
REMARK                            x       y       z     vdW  Elec       q    Type
REMARK                         _______ _______ _______ _____ _____    ______ ____
ROOT
ATOM      1  C   UNL     1     -11.096   2.009 -16.268  0.00  0.00    +0.123 A 
ATOM      2  C   UNL     1     -12.231   1.199 -16.389  0.00  0.00    -0.008 A 
ATOM      3  C   UNL     1     -12.104  -0.263 -16.716  0.00  0.00    +0.047 C 
ATOM      4  C   UNL     1     -13.506   1.776 -16.248  0.00  0.00    +0.015 A 
ATOM      5  C   UNL     1     -13.668   3.132 -15.953  0.00  0.00    -0.023 A 
ATOM      6  C   UNL     1     -12.504   3.912 -15.822  0.00  0.00    +0.015 A 
ATOM      7  C   UNL     1     -11.214   3.371 -15.977  0.00  0.00    -0.008 A 
ATOM      8  C   UNL     1     -10.021   4.274 -15.842  0.00  0.00    +0.047 C 
ENDROOT
BRANCH   5   9
ATOM      9  C   UNL     1     -14.967   3.827 -15.803  0.00  0.00    +0.028 C 
ATOM     10  C   UNL     1     -15.589   4.402 -14.763  0.00  0.00    +0.077 C 
ATOM     11  C   UNL     1     -16.933   5.029 -14.947  0.00  0.00    +0.256 C 
ATOM     12  N   UNL     1     -17.383   5.524 -13.756  0.00  0.00    -0.270 N 
ATOM     13  H   UNL     1     -18.283   5.975 -13.705  0.00  0.00    +0.156 HD
ATOM     14  C   UNL     1     -16.585   5.384 -12.665  0.00  0.00    +0.118 C 
ATOM     15  S   UNL     1     -16.997   5.916 -11.153  0.00  0.00    -0.027 S 
ATOM     16  O   UNL     1     -17.550   5.095 -15.998  0.00  0.00    -0.269 OA
ATOM     17  S   UNL     1     -15.106   4.574 -13.118  0.00  0.00    -0.061 S 
ENDBRANCH   5   9
BRANCH   1  18
ATOM     18  O   UNL     1      -9.879   1.412 -16.454  0.00  0.00    -0.506 OA
ATOM     19  H   UNL     1      -9.219   1.830 -15.881  0.00  0.00    +0.292 HD
ENDBRANCH   1  18
TORSDOF 2
ENDMDL
MODEL 6
REMARK VINA RESULT:      -6.2     15.714     17.339
REMARK  Name = min_compound922.pdb
REMARK  4 active torsions:
REMARK  status: ('A' for Active; 'I' for Inactive)
REMARK    1  A    between atoms: _1  and  _15
REMARK    2  A    between atoms: _2  and  _16
REMARK    3  A    between atoms: _3  and  _17
REMARK    4  A    between atoms: _6  and  _18
REMARK                            x       y       z     vdW  Elec       q    Type
REMARK                         _______ _______ _______ _____ _____    ______ ____
ROOT
ATOM      1  C   UNL     1     -15.607   1.787  -4.042  0.00  0.00    +0.123 A 
ATOM      2  C   UNL     1     -16.530   0.737  -4.088  0.00  0.00    -0.008 A 
ATOM      3  C   UNL     1     -17.930   0.960  -4.588  0.00  0.00    +0.047 C 
ATOM      4  C   UNL     1     -16.151  -0.533  -3.615  0.00  0.00    +0.015 A 
ATOM      5  C   UNL     1     -14.863  -0.780  -3.134  0.00  0.00    -0.023 A 
ATOM      6  C   UNL     1     -13.956   0.296  -3.119  0.00  0.00    +0.015 A 
ATOM      7  C   UNL     1     -14.309   1.583  -3.565  0.00  0.00    -0.008 A 
ATOM      8  C   UNL     1     -13.291   2.686  -3.497  0.00  0.00    +0.047 C 
ENDROOT
BRANCH   5   9
ATOM      9  C   UNL     1     -14.381  -2.076  -2.603  0.00  0.00    +0.028 C 
ATOM     10  C   UNL     1     -14.764  -2.851  -1.576  0.00  0.00    +0.077 C 
ATOM     11  C   UNL     1     -14.047  -4.131  -1.296  0.00  0.00    +0.256 C 
ATOM     12  N   UNL     1     -14.585  -4.736  -0.196  0.00  0.00    -0.270 N 
ATOM     13  H   UNL     1     -14.209  -5.611   0.134  0.00  0.00    +0.156 HD
ATOM     14  C   UNL     1     -15.626  -4.121   0.424  0.00  0.00    +0.118 C 
ATOM     15  S   UNL     1     -16.373  -4.718   1.775  0.00  0.00    -0.027 S 
ATOM     16  O   UNL     1     -13.116  -4.583  -1.944  0.00  0.00    -0.269 OA
ATOM     17  S   UNL     1     -16.022  -2.643  -0.418  0.00  0.00    -0.061 S 
ENDBRANCH   5   9
BRANCH   1  18
ATOM     18  O   UNL     1     -16.034   3.013  -4.475  0.00  0.00    -0.506 OA
ATOM     19  H   UNL     1     -15.311   3.470  -4.930  0.00  0.00    +0.292 HD
ENDBRANCH   1  18
TORSDOF 2
ENDMDL
MODEL 7
REMARK VINA RESULT:      -6.2     15.113     17.182
REMARK  Name = min_compound922.pdb
REMARK  4 active torsions:
REMARK  status: ('A' for Active; 'I' for Inactive)
REMARK    1  A    between atoms: _1  and  _15
REMARK    2  A    between atoms: _2  and  _16
REMARK    3  A    between atoms: _3  and  _17
REMARK    4  A    between atoms: _6  and  _18
REMARK                            x       y       z     vdW  Elec       q    Type
REMARK                         _______ _______ _______ _____ _____    ______ ____
ROOT
ATOM      1  C   UNL     1     -14.215   0.577  -5.161  0.00  0.00    +0.123 A 
ATOM      2  C   UNL     1     -13.922   1.090  -3.892  0.00  0.00    -0.008 A 
ATOM      3  C   UNL     1     -13.231   2.417  -3.737  0.00  0.00    +0.047 C 
ATOM      4  C   UNL     1     -14.239   0.330  -2.752  0.00  0.00    +0.015 A 
ATOM      5  C   UNL     1     -14.873  -0.911  -2.853  0.00  0.00    -0.023 A 
ATOM      6  C   UNL     1     -15.168  -1.388  -4.144  0.00  0.00    +0.015 A 
ATOM      7  C   UNL     1     -14.846  -0.662  -5.306  0.00  0.00    -0.008 A 
ATOM      8  C   UNL     1     -15.174  -1.248  -6.649  0.00  0.00    +0.047 C 
ENDROOT
BRANCH   5   9
ATOM      9  C   UNL     1     -15.230  -1.786  -1.712  0.00  0.00    +0.028 C 
ATOM     10  C   UNL     1     -14.889  -3.038  -1.370  0.00  0.00    +0.077 C 
ATOM     11  C   UNL     1     -15.441  -3.650  -0.124  0.00  0.00    +0.256 C 
ATOM     12  N   UNL     1     -14.984  -4.930   0.008  0.00  0.00    -0.270 N 
ATOM     13  H   UNL     1     -15.270  -5.490   0.796  0.00  0.00    +0.156 HD
ATOM     14  C   UNL     1     -14.147  -5.410  -0.949  0.00  0.00    +0.118 C 
ATOM     15  S   UNL     1     -13.522  -6.943  -0.938  0.00  0.00    -0.027 S 
ATOM     16  O   UNL     1     -16.192  -3.102   0.667  0.00  0.00    -0.269 OA
ATOM     17  S   UNL     1     -13.856  -4.176  -2.149  0.00  0.00    -0.061 S 
ENDBRANCH   5   9
BRANCH   1  18
ATOM     18  O   UNL     1     -13.851   1.335  -6.241  0.00  0.00    -0.506 OA
ATOM     19  H   UNL     1     -14.596   1.890  -6.516  0.00  0.00    +0.292 HD
ENDBRANCH   1  18
TORSDOF 2
ENDMDL
MODEL 8
REMARK VINA RESULT:      -6.2     15.266     17.188
REMARK  Name = min_compound922.pdb
REMARK  4 active torsions:
REMARK  status: ('A' for Active; 'I' for Inactive)
REMARK    1  A    between atoms: _1  and  _15
REMARK    2  A    between atoms: _2  and  _16
REMARK    3  A    between atoms: _3  and  _17
REMARK    4  A    between atoms: _6  and  _18
REMARK                            x       y       z     vdW  Elec       q    Type
REMARK                         _______ _______ _______ _____ _____    ______ ____
ROOT
ATOM      1  C   UNL     1     -14.272   0.612  -5.175  0.00  0.00    +0.123 A 
ATOM      2  C   UNL     1     -13.894   0.996  -3.884  0.00  0.00    -0.008 A 
ATOM      3  C   UNL     1     -13.345   2.370  -3.617  0.00  0.00    +0.047 C 
ATOM      4  C   UNL     1     -13.987   0.064  -2.834  0.00  0.00    +0.015 A 
ATOM      5  C   UNL     1     -14.484  -1.225  -3.041  0.00  0.00    -0.023 A 
ATOM      6  C   UNL     1     -14.871  -1.570  -4.350  0.00  0.00    +0.015 A 
ATOM      7  C   UNL     1     -14.771  -0.669  -5.426  0.00  0.00    -0.008 A 
ATOM      8  C   UNL     1     -15.185  -1.120  -6.798  0.00  0.00    +0.047 C 
ENDROOT
BRANCH   5   9
ATOM      9  C   UNL     1     -14.603  -2.274  -2.003  0.00  0.00    +0.028 C 
ATOM     10  C   UNL     1     -15.539  -2.559  -1.084  0.00  0.00    +0.077 C 
ATOM     11  C   UNL     1     -15.350  -3.715  -0.156  0.00  0.00    +0.256 C 
ATOM     12  N   UNL     1     -16.406  -3.798   0.705  0.00  0.00    -0.270 N 
ATOM     13  H   UNL     1     -16.432  -4.523   1.405  0.00  0.00    +0.156 HD
ATOM     14  C   UNL     1     -17.401  -2.881   0.585  0.00  0.00    +0.118 C 
ATOM     15  S   UNL     1     -18.736  -2.839   1.562  0.00  0.00    -0.027 S 
ATOM     16  O   UNL     1     -14.399  -4.479  -0.155  0.00  0.00    -0.269 OA
ATOM     17  S   UNL     1     -17.040  -1.790  -0.730  0.00  0.00    -0.061 S 
ENDBRANCH   5   9
BRANCH   1  18
ATOM     18  O   UNL     1     -14.126   1.539  -6.171  0.00  0.00    -0.506 OA
ATOM     19  H   UNL     1     -13.896   2.398  -5.786  0.00  0.00    +0.292 HD
ENDBRANCH   1  18
TORSDOF 2
ENDMDL
MODEL 9
REMARK VINA RESULT:      -6.1      4.526      5.217
REMARK  Name = min_compound922.pdb
REMARK  4 active torsions:
REMARK  status: ('A' for Active; 'I' for Inactive)
REMARK    1  A    between atoms: _1  and  _15
REMARK    2  A    between atoms: _2  and  _16
REMARK    3  A    between atoms: _3  and  _17
REMARK    4  A    between atoms: _6  and  _18
REMARK                            x       y       z     vdW  Elec       q    Type
REMARK                         _______ _______ _______ _____ _____    ______ ____
ROOT
ATOM      1  C   UNL     1     -11.147   2.024 -16.294  0.00  0.00    +0.123 A 
ATOM      2  C   UNL     1     -11.282   3.387 -16.008  0.00  0.00    -0.008 A 
ATOM      3  C   UNL     1     -10.074   4.274 -15.887  0.00  0.00    +0.047 C 
ATOM      4  C   UNL     1     -12.565   3.919 -15.786  0.00  0.00    +0.015 A 
ATOM      5  C   UNL     1     -13.713   3.127 -15.881  0.00  0.00    -0.023 A 
ATOM      6  C   UNL     1     -13.539   1.765 -16.187  0.00  0.00    +0.015 A 
ATOM      7  C   UNL     1     -12.268   1.196 -16.395  0.00  0.00    -0.008 A 
ATOM      8  C   UNL     1     -12.164  -0.271 -16.697  0.00  0.00    +0.047 C 
ENDROOT
BRANCH   5   9
ATOM      9  C   UNL     1     -15.098   3.596 -15.648  0.00  0.00    +0.028 C 
ATOM     10  C   UNL     1     -15.710   4.180 -14.607  0.00  0.00    +0.077 C 
ATOM     11  C   UNL     1     -17.160   4.532 -14.692  0.00  0.00    +0.256 C 
ATOM     12  N   UNL     1     -17.575   5.087 -13.515  0.00  0.00    -0.270 N 
ATOM     13  H   UNL     1     -18.535   5.376 -13.403  0.00  0.00    +0.156 HD
ATOM     14  C   UNL     1     -16.660   5.230 -12.521  0.00  0.00    +0.118 C 
ATOM     15  S   UNL     1     -17.011   5.869 -11.035  0.00  0.00    -0.027 S 
ATOM     16  O   UNL     1     -17.881   4.354 -15.661  0.00  0.00    -0.269 OA
ATOM     17  S   UNL     1     -15.107   4.642 -13.061  0.00  0.00    -0.061 S 
ENDBRANCH   5   9
BRANCH   1  18
ATOM     18  O   UNL     1      -9.876   1.544 -16.463  0.00  0.00    -0.506 OA
ATOM     19  H   UNL     1      -9.239   2.162 -16.073  0.00  0.00    +0.292 HD
ENDBRANCH   1  18
TORSDOF 2
ENDMDL
