MODEL 1
REMARK VINA RESULT:      -7.6      0.000      0.000
REMARK  Name = min_compound934.pdb
REMARK  3 active torsions:
REMARK  status: ('A' for Active; 'I' for Inactive)
REMARK    1  A    between atoms: _3  and  _16
REMARK    2  A    between atoms: _5  and  _22
REMARK    3  A    between atoms: _7  and  _9
REMARK                            x       y       z     vdW  Elec       q    Type
REMARK                         _______ _______ _______ _____ _____    ______ ____
ROOT
ATOM      1  N   UNL     1     -10.676   4.080 -17.020  0.00  0.00    -0.172 NA
ATOM      2  C   UNL     1     -11.512   3.027 -16.986  0.00  0.00    +0.094 A 
ATOM      3  C   UNL     1     -12.868   3.473 -16.959  0.00  0.00    +0.073 A 
ATOM      4  C   UNL     1     -12.812   4.846 -16.978  0.00  0.00    +0.121 A 
ATOM      5  N   UNL     1     -11.481   5.155 -17.015  0.00  0.00    -0.263 N 
ATOM      6  H   UNL     1     -11.079   6.089 -17.038  0.00  0.00    +0.190 HD
ENDROOT
BRANCH   2   7
ATOM      7  C   UNL     1     -11.009   1.646 -16.981  0.00  0.00    +0.002 A 
ATOM      8  C   UNL     1     -11.817   0.598 -16.508  0.00  0.00    +0.010 A 
ATOM      9  C   UNL     1     -11.353  -0.720 -16.497  0.00  0.00    +0.001 A 
ATOM     10  C   UNL     1     -10.072  -1.012 -16.959  0.00  0.00    +0.000 A 
ATOM     11  C   UNL     1      -9.256   0.014 -17.432  0.00  0.00    +0.001 A 
ATOM     12  C   UNL     1      -9.722   1.334 -17.443  0.00  0.00    +0.010 A 
ENDBRANCH   2   7
BRANCH   4  13
ATOM     13  N   UNL     1     -13.836   5.775 -16.966  0.00  0.00    -0.267 N 
ATOM     14  H   UNL     1     -14.702   5.487 -16.537  0.00  0.00    +0.157 HD
ATOM     15  C   UNL     1     -13.675   7.039 -17.515  0.00  0.00    +0.249 C 
ATOM     16  O   UNL     1     -12.630   7.420 -18.042  0.00  0.00    -0.270 OA
BRANCH  15  17
ATOM     17  C   UNL     1     -14.844   7.976 -17.453  0.00  0.00    +0.037 A 
ATOM     18  C   UNL     1     -15.681   8.258 -18.544  0.00  0.00    +0.014 A 
ATOM     19  C   UNL     1     -16.754   9.147 -18.402  0.00  0.00    +0.021 A 
ATOM     20  C   UNL     1     -16.999   9.759 -17.175  0.00  0.00    +0.041 A 
ATOM     21 CL   UNL     1     -18.318  10.850 -17.012  0.00  0.00    -0.084 Cl
ATOM     22  C   UNL     1     -16.179   9.492 -16.084  0.00  0.00    +0.021 A 
ATOM     23  C   UNL     1     -15.108   8.605 -16.223  0.00  0.00    +0.014 A 
ENDBRANCH  15  17
ENDBRANCH   4  13
TORSDOF 3
ENDMDL
MODEL 2
REMARK VINA RESULT:      -7.3      9.790     10.519
REMARK  Name = min_compound934.pdb
REMARK  3 active torsions:
REMARK  status: ('A' for Active; 'I' for Inactive)
REMARK    1  A    between atoms: _3  and  _16
REMARK    2  A    between atoms: _5  and  _22
REMARK    3  A    between atoms: _7  and  _9
REMARK                            x       y       z     vdW  Elec       q    Type
REMARK                         _______ _______ _______ _____ _____    ______ ____
ROOT
ATOM      1  N   UNL     1     -16.803   2.523  -6.083  0.00  0.00    -0.172 NA
ATOM      2  C   UNL     1     -15.774   1.666  -6.211  0.00  0.00    +0.094 A 
ATOM      3  C   UNL     1     -15.435   1.504  -7.588  0.00  0.00    +0.073 A 
ATOM      4  C   UNL     1     -16.307   2.304  -8.288  0.00  0.00    +0.121 A 
ATOM      5  N   UNL     1     -17.101   2.889  -7.341  0.00  0.00    -0.263 N 
ATOM      6  H   UNL     1     -17.859   3.545  -7.511  0.00  0.00    +0.190 HD
ENDROOT
BRANCH   2   7
ATOM      7  C   UNL     1     -15.150   1.034  -5.040  0.00  0.00    +0.002 A 
ATOM      8  C   UNL     1     -14.084   1.665  -4.377  0.00  0.00    +0.010 A 
ATOM      9  C   UNL     1     -13.480   1.076  -3.263  0.00  0.00    +0.001 A 
ATOM     10  C   UNL     1     -13.933  -0.154  -2.793  0.00  0.00    +0.000 A 
ATOM     11  C   UNL     1     -14.989  -0.795  -3.438  0.00  0.00    +0.001 A 
ATOM     12  C   UNL     1     -15.593  -0.205  -4.554  0.00  0.00    +0.010 A 
ENDBRANCH   2   7
BRANCH   4  13
ATOM     13  N   UNL     1     -16.415   2.519  -9.648  0.00  0.00    -0.267 N 
ATOM     14  H   UNL     1     -16.600   1.709 -10.221  0.00  0.00    +0.157 HD
ATOM     15  C   UNL     1     -16.278   3.787 -10.195  0.00  0.00    +0.249 C 
ATOM     16  O   UNL     1     -16.056   4.793  -9.523  0.00  0.00    -0.270 OA
BRANCH  15  17
ATOM     17  C   UNL     1     -16.412   3.919 -11.684  0.00  0.00    +0.037 A 
ATOM     18  C   UNL     1     -15.734   4.880 -12.449  0.00  0.00    +0.014 A 
ATOM     19  C   UNL     1     -15.916   4.935 -13.837  0.00  0.00    +0.021 A 
ATOM     20  C   UNL     1     -16.772   4.036 -14.469  0.00  0.00    +0.041 A 
ATOM     21 CL   UNL     1     -16.988   4.114 -16.172  0.00  0.00    -0.084 Cl
ATOM     22  C   UNL     1     -17.452   3.078 -13.725  0.00  0.00    +0.021 A 
ATOM     23  C   UNL     1     -17.273   3.020 -12.339  0.00  0.00    +0.014 A 
ENDBRANCH  15  17
ENDBRANCH   4  13
TORSDOF 3
ENDMDL
MODEL 3
REMARK VINA RESULT:      -7.0      8.293     10.697
REMARK  Name = min_compound934.pdb
REMARK  3 active torsions:
REMARK  status: ('A' for Active; 'I' for Inactive)
REMARK    1  A    between atoms: _3  and  _16
REMARK    2  A    between atoms: _5  and  _22
REMARK    3  A    between atoms: _7  and  _9
REMARK                            x       y       z     vdW  Elec       q    Type
REMARK                         _______ _______ _______ _____ _____    ______ ____
ROOT
ATOM      1  N   UNL     1     -16.779   6.112 -11.415  0.00  0.00    -0.172 NA
ATOM      2  C   UNL     1     -15.882   5.630 -12.294  0.00  0.00    +0.094 A 
ATOM      3  C   UNL     1     -15.228   4.483 -11.752  0.00  0.00    +0.073 A 
ATOM      4  C   UNL     1     -15.771   4.293 -10.504  0.00  0.00    +0.121 A 
ATOM      5  N   UNL     1     -16.692   5.293 -10.354  0.00  0.00    -0.263 N 
ATOM      6  H   UNL     1     -17.282   5.452  -9.541  0.00  0.00    +0.190 HD
ENDROOT
BRANCH   2   7
ATOM      7  C   UNL     1     -15.673   6.262 -13.604  0.00  0.00    +0.002 A 
ATOM      8  C   UNL     1     -15.463   5.472 -14.747  0.00  0.00    +0.010 A 
ATOM      9  C   UNL     1     -15.264   6.058 -16.000  0.00  0.00    +0.001 A 
ATOM     10  C   UNL     1     -15.271   7.444 -16.130  0.00  0.00    +0.000 A 
ATOM     11  C   UNL     1     -15.478   8.244 -15.008  0.00  0.00    +0.001 A 
ATOM     12  C   UNL     1     -15.678   7.657 -13.754  0.00  0.00    +0.010 A 
ENDBRANCH   2   7
BRANCH   4  13
ATOM     13  N   UNL     1     -15.497   3.327  -9.555  0.00  0.00    -0.267 N 
ATOM     14  H   UNL     1     -14.553   3.294  -9.203  0.00  0.00    +0.157 HD
ATOM     15  C   UNL     1     -16.475   2.448  -9.112  0.00  0.00    +0.249 C 
ATOM     16  O   UNL     1     -17.636   2.465  -9.521  0.00  0.00    -0.270 OA
BRANCH  15  17
ATOM     17  C   UNL     1     -16.080   1.433  -8.080  0.00  0.00    +0.037 A 
ATOM     18  C   UNL     1     -16.942   0.442  -7.586  0.00  0.00    +0.014 A 
ATOM     19  C   UNL     1     -16.493  -0.469  -6.621  0.00  0.00    +0.021 A 
ATOM     20  C   UNL     1     -15.187  -0.397  -6.144  0.00  0.00    +0.041 A 
ATOM     21 CL   UNL     1     -14.647  -1.519  -4.958  0.00  0.00    -0.084 Cl
ATOM     22  C   UNL     1     -14.320   0.580  -6.621  0.00  0.00    +0.021 A 
ATOM     23  C   UNL     1     -14.765   1.490  -7.585  0.00  0.00    +0.014 A 
ENDBRANCH  15  17
ENDBRANCH   4  13
TORSDOF 3
ENDMDL
MODEL 4
REMARK VINA RESULT:      -7.0     10.869     12.851
REMARK  Name = min_compound934.pdb
REMARK  3 active torsions:
REMARK  status: ('A' for Active; 'I' for Inactive)
REMARK    1  A    between atoms: _3  and  _16
REMARK    2  A    between atoms: _5  and  _22
REMARK    3  A    between atoms: _7  and  _9
REMARK                            x       y       z     vdW  Elec       q    Type
REMARK                         _______ _______ _______ _____ _____    ______ ____
ROOT
ATOM      1  N   UNL     1     -17.527   3.934  -8.875  0.00  0.00    -0.172 NA
ATOM      2  C   UNL     1     -16.576   3.355  -9.630  0.00  0.00    +0.094 A 
ATOM      3  C   UNL     1     -15.877   2.368  -8.872  0.00  0.00    +0.073 A 
ATOM      4  C   UNL     1     -16.449   2.378  -7.622  0.00  0.00    +0.121 A 
ATOM      5  N   UNL     1     -17.429   3.330  -7.679  0.00  0.00    -0.263 N 
ATOM      6  H   UNL     1     -18.053   3.598  -6.923  0.00  0.00    +0.190 HD
ENDROOT
BRANCH   2   7
ATOM      7  C   UNL     1     -16.361   3.748 -11.030  0.00  0.00    +0.002 A 
ATOM      8  C   UNL     1     -17.123   3.165 -12.056  0.00  0.00    +0.010 A 
ATOM      9  C   UNL     1     -16.930   3.528 -13.391  0.00  0.00    +0.001 A 
ATOM     10  C   UNL     1     -15.970   4.481 -13.722  0.00  0.00    +0.000 A 
ATOM     11  C   UNL     1     -15.204   5.070 -12.719  0.00  0.00    +0.001 A 
ATOM     12  C   UNL     1     -15.398   4.706 -11.381  0.00  0.00    +0.010 A 
ENDBRANCH   2   7
BRANCH   4  13
ATOM     13  N   UNL     1     -16.153   1.619  -6.506  0.00  0.00    -0.267 N 
ATOM     14  H   UNL     1     -16.897   1.489  -5.838  0.00  0.00    +0.157 HD
ATOM     15  C   UNL     1     -14.894   1.066  -6.318  0.00  0.00    +0.249 C 
ATOM     16  O   UNL     1     -13.968   1.206  -7.115  0.00  0.00    -0.270 OA
BRANCH  15  17
ATOM     17  C   UNL     1     -14.670   0.258  -5.074  0.00  0.00    +0.037 A 
ATOM     18  C   UNL     1     -14.149   0.785  -3.882  0.00  0.00    +0.014 A 
ATOM     19  C   UNL     1     -13.970  -0.039  -2.763  0.00  0.00    +0.021 A 
ATOM     20  C   UNL     1     -14.309  -1.389  -2.826  0.00  0.00    +0.041 A 
ATOM     21 CL   UNL     1     -14.085  -2.392  -1.448  0.00  0.00    -0.084 Cl
ATOM     22  C   UNL     1     -14.826  -1.927  -3.999  0.00  0.00    +0.021 A 
ATOM     23  C   UNL     1     -15.005  -1.107  -5.118  0.00  0.00    +0.014 A 
ENDBRANCH  15  17
ENDBRANCH   4  13
TORSDOF 3
ENDMDL
MODEL 5
REMARK VINA RESULT:      -7.0      3.591      8.815
REMARK  Name = min_compound934.pdb
REMARK  3 active torsions:
REMARK  status: ('A' for Active; 'I' for Inactive)
REMARK    1  A    between atoms: _3  and  _16
REMARK    2  A    between atoms: _5  and  _22
REMARK    3  A    between atoms: _7  and  _9
REMARK                            x       y       z     vdW  Elec       q    Type
REMARK                         _______ _______ _______ _____ _____    ______ ____
ROOT
ATOM      1  N   UNL     1     -14.135   7.452 -18.547  0.00  0.00    -0.172 NA
ATOM      2  C   UNL     1     -14.663   7.591 -17.318  0.00  0.00    +0.094 A 
ATOM      3  C   UNL     1     -14.220   6.533 -16.469  0.00  0.00    +0.073 A 
ATOM      4  C   UNL     1     -13.400   5.747 -17.242  0.00  0.00    +0.121 A 
ATOM      5  N   UNL     1     -13.383   6.341 -18.473  0.00  0.00    -0.263 N 
ATOM      6  H   UNL     1     -12.872   6.020 -19.291  0.00  0.00    +0.190 HD
ENDROOT
BRANCH   2   7
ATOM      7  C   UNL     1     -15.559   8.708 -16.988  0.00  0.00    +0.002 A 
ATOM      8  C   UNL     1     -16.365   9.289 -17.982  0.00  0.00    +0.010 A 
ATOM      9  C   UNL     1     -17.222  10.352 -17.683  0.00  0.00    +0.001 A 
ATOM     10  C   UNL     1     -17.287  10.851 -16.385  0.00  0.00    +0.000 A 
ATOM     11  C   UNL     1     -16.495  10.288 -15.386  0.00  0.00    +0.001 A 
ATOM     12  C   UNL     1     -15.637   9.223 -15.686  0.00  0.00    +0.010 A 
ENDBRANCH   2   7
BRANCH   4  13
ATOM     13  N   UNL     1     -12.709   4.596 -16.914  0.00  0.00    -0.267 N 
ATOM     14  H   UNL     1     -12.213   4.601 -16.036  0.00  0.00    +0.157 HD
ATOM     15  C   UNL     1     -12.702   3.491 -17.753  0.00  0.00    +0.249 C 
ATOM     16  O   UNL     1     -13.298   3.453 -18.829  0.00  0.00    -0.270 OA
BRANCH  15  17
ATOM     17  C   UNL     1     -11.922   2.288 -17.310  0.00  0.00    +0.037 A 
ATOM     18  C   UNL     1     -11.971   1.042 -17.954  0.00  0.00    +0.014 A 
ATOM     19  C   UNL     1     -11.209  -0.032 -17.474  0.00  0.00    +0.021 A 
ATOM     20  C   UNL     1     -10.397   0.129 -16.354  0.00  0.00    +0.041 A 
ATOM     21 CL   UNL     1      -9.468  -1.196 -15.774  0.00  0.00    -0.084 Cl
ATOM     22  C   UNL     1     -10.338   1.357 -15.704  0.00  0.00    +0.021 A 
ATOM     23  C   UNL     1     -11.097   2.431 -16.180  0.00  0.00    +0.014 A 
ENDBRANCH  15  17
ENDBRANCH   4  13
TORSDOF 3
ENDMDL
MODEL 6
REMARK VINA RESULT:      -6.8     14.219     16.603
REMARK  Name = min_compound934.pdb
REMARK  3 active torsions:
REMARK  status: ('A' for Active; 'I' for Inactive)
REMARK    1  A    between atoms: _3  and  _16
REMARK    2  A    between atoms: _5  and  _22
REMARK    3  A    between atoms: _7  and  _9
REMARK                            x       y       z     vdW  Elec       q    Type
REMARK                         _______ _______ _______ _____ _____    ______ ____
ROOT
ATOM      1  N   UNL     1     -15.008   1.138  -5.187  0.00  0.00    -0.172 NA
ATOM      2  C   UNL     1     -15.687   0.506  -6.161  0.00  0.00    +0.094 A 
ATOM      3  C   UNL     1     -15.670  -0.904  -5.939  0.00  0.00    +0.073 A 
ATOM      4  C   UNL     1     -14.949  -1.095  -4.785  0.00  0.00    +0.121 A 
ATOM      5  N   UNL     1     -14.578   0.156  -4.378  0.00  0.00    -0.263 N 
ATOM      6  H   UNL     1     -14.030   0.384  -3.552  0.00  0.00    +0.190 HD
ENDROOT
BRANCH   2   7
ATOM      7  C   UNL     1     -16.324   1.246  -7.259  0.00  0.00    +0.002 A 
ATOM      8  C   UNL     1     -17.712   1.159  -7.462  0.00  0.00    +0.010 A 
ATOM      9  C   UNL     1     -18.332   1.857  -8.502  0.00  0.00    +0.001 A 
ATOM     10  C   UNL     1     -17.574   2.654  -9.356  0.00  0.00    +0.000 A 
ATOM     11  C   UNL     1     -16.197   2.753  -9.170  0.00  0.00    +0.001 A 
ATOM     12  C   UNL     1     -15.576   2.054  -8.129  0.00  0.00    +0.010 A 
ENDBRANCH   2   7
BRANCH   4  13
ATOM     13  N   UNL     1     -14.629  -2.265  -4.123  0.00  0.00    -0.267 N 
ATOM     14  H   UNL     1     -14.251  -3.013  -4.684  0.00  0.00    +0.157 HD
ATOM     15  C   UNL     1     -14.819  -2.399  -2.755  0.00  0.00    +0.249 C 
ATOM     16  O   UNL     1     -15.276  -1.505  -2.044  0.00  0.00    -0.270 OA
BRANCH  15  17
ATOM     17  C   UNL     1     -14.443  -3.709  -2.127  0.00  0.00    +0.037 A 
ATOM     18  C   UNL     1     -15.229  -4.869  -2.203  0.00  0.00    +0.014 A 
ATOM     19  C   UNL     1     -14.804  -6.053  -1.588  0.00  0.00    +0.021 A 
ATOM     20  C   UNL     1     -13.596  -6.088  -0.895  0.00  0.00    +0.041 A 
ATOM     21 CL   UNL     1     -13.084  -7.547  -0.142  0.00  0.00    -0.084 Cl
ATOM     22  C   UNL     1     -12.805  -4.948  -0.809  0.00  0.00    +0.021 A 
ATOM     23  C   UNL     1     -13.227  -3.764  -1.422  0.00  0.00    +0.014 A 
ENDBRANCH  15  17
ENDBRANCH   4  13
TORSDOF 3
ENDMDL
MODEL 7
REMARK VINA RESULT:      -6.8      9.805     11.642
REMARK  Name = min_compound934.pdb
REMARK  3 active torsions:
REMARK  status: ('A' for Active; 'I' for Inactive)
REMARK    1  A    between atoms: _3  and  _16
REMARK    2  A    between atoms: _5  and  _22
REMARK    3  A    between atoms: _7  and  _9
REMARK                            x       y       z     vdW  Elec       q    Type
REMARK                         _______ _______ _______ _____ _____    ______ ____
ROOT
ATOM      1  N   UNL     1     -19.022   3.389 -10.823  0.00  0.00    -0.172 NA
ATOM      2  C   UNL     1     -17.941   3.240 -11.610  0.00  0.00    +0.094 A 
ATOM      3  C   UNL     1     -16.788   2.963 -10.815  0.00  0.00    +0.073 A 
ATOM      4  C   UNL     1     -17.222   2.952  -9.511  0.00  0.00    +0.121 A 
ATOM      5  N   UNL     1     -18.563   3.211  -9.574  0.00  0.00    -0.263 N 
ATOM      6  H   UNL     1     -19.202   3.276  -8.785  0.00  0.00    +0.190 HD
ENDROOT
BRANCH   2   7
ATOM      7  C   UNL     1     -18.031   3.361 -13.072  0.00  0.00    +0.002 A 
ATOM      8  C   UNL     1     -19.059   4.117 -13.659  0.00  0.00    +0.010 A 
ATOM      9  C   UNL     1     -19.157   4.242 -15.047  0.00  0.00    +0.001 A 
ATOM     10  C   UNL     1     -18.228   3.612 -15.871  0.00  0.00    +0.000 A 
ATOM     11  C   UNL     1     -17.201   2.858 -15.307  0.00  0.00    +0.001 A 
ATOM     12  C   UNL     1     -17.103   2.734 -13.916  0.00  0.00    +0.010 A 
ENDBRANCH   2   7
BRANCH   4  13
ATOM     13  N   UNL     1     -16.516   2.733  -8.344  0.00  0.00    -0.267 N 
ATOM     14  H   UNL     1     -16.148   3.549  -7.879  0.00  0.00    +0.157 HD
ATOM     15  C   UNL     1     -16.327   1.454  -7.840  0.00  0.00    +0.249 C 
ATOM     16  O   UNL     1     -16.765   0.441  -8.383  0.00  0.00    -0.270 OA
BRANCH  15  17
ATOM     17  C   UNL     1     -15.546   1.319  -6.566  0.00  0.00    +0.037 A 
ATOM     18  C   UNL     1     -15.854   2.007  -5.382  0.00  0.00    +0.014 A 
ATOM     19  C   UNL     1     -15.073   1.824  -4.234  0.00  0.00    +0.021 A 
ATOM     20  C   UNL     1     -13.982   0.957  -4.259  0.00  0.00    +0.041 A 
ATOM     21 CL   UNL     1     -13.029   0.741  -2.845  0.00  0.00    -0.084 Cl
ATOM     22  C   UNL     1     -13.663   0.269  -5.424  0.00  0.00    +0.021 A 
ATOM     23  C   UNL     1     -14.441   0.450  -6.572  0.00  0.00    +0.014 A 
ENDBRANCH  15  17
ENDBRANCH   4  13
TORSDOF 3
ENDMDL
MODEL 8
REMARK VINA RESULT:      -6.8     10.879     11.629
REMARK  Name = min_compound934.pdb
REMARK  3 active torsions:
REMARK  status: ('A' for Active; 'I' for Inactive)
REMARK    1  A    between atoms: _3  and  _16
REMARK    2  A    between atoms: _5  and  _22
REMARK    3  A    between atoms: _7  and  _9
REMARK                            x       y       z     vdW  Elec       q    Type
REMARK                         _______ _______ _______ _____ _____    ______ ____
ROOT
ATOM      1  N   UNL     1     -16.599   1.835  -4.863  0.00  0.00    -0.172 NA
ATOM      2  C   UNL     1     -15.921   0.694  -5.083  0.00  0.00    +0.094 A 
ATOM      3  C   UNL     1     -15.469   0.641  -6.436  0.00  0.00    +0.073 A 
ATOM      4  C   UNL     1     -15.906   1.804  -7.025  0.00  0.00    +0.121 A 
ATOM      5  N   UNL     1     -16.573   2.480  -6.041  0.00  0.00    -0.263 N 
ATOM      6  H   UNL     1     -17.027   3.385  -6.133  0.00  0.00    +0.190 HD
ENDROOT
BRANCH   2   7
ATOM      7  C   UNL     1     -15.723  -0.300  -4.018  0.00  0.00    +0.002 A 
ATOM      8  C   UNL     1     -16.742  -1.214  -3.702  0.00  0.00    +0.010 A 
ATOM      9  C   UNL     1     -16.569  -2.165  -2.693  0.00  0.00    +0.001 A 
ATOM     10  C   UNL     1     -15.372  -2.217  -1.983  0.00  0.00    +0.000 A 
ATOM     11  C   UNL     1     -14.350  -1.319  -2.282  0.00  0.00    +0.001 A 
ATOM     12  C   UNL     1     -14.524  -0.367  -3.293  0.00  0.00    +0.010 A 
ENDBRANCH   2   7
BRANCH   4  13
ATOM     13  N   UNL     1     -15.742   2.258  -8.319  0.00  0.00    -0.267 N 
ATOM     14  H   UNL     1     -14.894   1.981  -8.791  0.00  0.00    +0.157 HD
ATOM     15  C   UNL     1     -16.699   3.051  -8.936  0.00  0.00    +0.249 C 
ATOM     16  O   UNL     1     -17.743   3.402  -8.388  0.00  0.00    -0.270 OA
BRANCH  15  17
ATOM     17  C   UNL     1     -16.429   3.494 -10.344  0.00  0.00    +0.037 A 
ATOM     18  C   UNL     1     -15.447   4.433 -10.695  0.00  0.00    +0.014 A 
ATOM     19  C   UNL     1     -15.260   4.792 -12.036  0.00  0.00    +0.021 A 
ATOM     20  C   UNL     1     -16.048   4.220 -13.032  0.00  0.00    +0.041 A 
ATOM     21 CL   UNL     1     -15.811   4.669 -14.675  0.00  0.00    -0.084 Cl
ATOM     22  C   UNL     1     -17.027   3.289 -12.701  0.00  0.00    +0.021 A 
ATOM     23  C   UNL     1     -17.216   2.928 -11.363  0.00  0.00    +0.014 A 
ENDBRANCH  15  17
ENDBRANCH   4  13
TORSDOF 3
ENDMDL
MODEL 9
REMARK VINA RESULT:      -6.5      7.524      8.226
REMARK  Name = min_compound934.pdb
REMARK  3 active torsions:
REMARK  status: ('A' for Active; 'I' for Inactive)
REMARK    1  A    between atoms: _3  and  _16
REMARK    2  A    between atoms: _5  and  _22
REMARK    3  A    between atoms: _7  and  _9
REMARK                            x       y       z     vdW  Elec       q    Type
REMARK                         _______ _______ _______ _____ _____    ______ ____
ROOT
ATOM      1  N   UNL     1     -18.081   2.179  -9.025  0.00  0.00    -0.172 NA
ATOM      2  C   UNL     1     -16.748   2.175  -8.854  0.00  0.00    +0.094 A 
ATOM      3  C   UNL     1     -16.158   3.274  -9.549  0.00  0.00    +0.073 A 
ATOM      4  C   UNL     1     -17.198   3.942 -10.150  0.00  0.00    +0.121 A 
ATOM      5  N   UNL     1     -18.323   3.247  -9.804  0.00  0.00    -0.263 N 
ATOM      6  H   UNL     1     -19.277   3.467 -10.079  0.00  0.00    +0.190 HD
ENDROOT
BRANCH   2   7
ATOM      7  C   UNL     1     -16.079   1.145  -8.046  0.00  0.00    +0.002 A 
ATOM      8  C   UNL     1     -16.652  -0.129  -7.906  0.00  0.00    +0.010 A 
ATOM      9  C   UNL     1     -16.028  -1.119  -7.141  0.00  0.00    +0.001 A 
ATOM     10  C   UNL     1     -14.820  -0.849  -6.504  0.00  0.00    +0.000 A 
ATOM     11  C   UNL     1     -14.236   0.410  -6.632  0.00  0.00    +0.001 A 
ATOM     12  C   UNL     1     -14.861   1.400  -7.398  0.00  0.00    +0.010 A 
ENDBRANCH   2   7
BRANCH   4  13
ATOM     13  N   UNL     1     -17.185   5.074 -10.942  0.00  0.00    -0.267 N 
ATOM     14  H   UNL     1     -17.432   5.942 -10.492  0.00  0.00    +0.157 HD
ATOM     15  C   UNL     1     -16.845   5.015 -12.286  0.00  0.00    +0.249 C 
ATOM     16  O   UNL     1     -16.537   3.972 -12.861  0.00  0.00    -0.270 OA
BRANCH  15  17
ATOM     17  C   UNL     1     -16.861   6.299 -13.062  0.00  0.00    +0.037 A 
ATOM     18  C   UNL     1     -18.027   7.023 -13.354  0.00  0.00    +0.014 A 
ATOM     19  C   UNL     1     -17.953   8.216 -14.086  0.00  0.00    +0.021 A 
ATOM     20  C   UNL     1     -16.722   8.691 -14.530  0.00  0.00    +0.041 A 
ATOM     21 CL   UNL     1     -16.643  10.155 -15.429  0.00  0.00    -0.084 Cl
ATOM     22  C   UNL     1     -15.557   7.985 -14.250  0.00  0.00    +0.021 A 
ATOM     23  C   UNL     1     -15.627   6.795 -13.519  0.00  0.00    +0.014 A 
ENDBRANCH  15  17
ENDBRANCH   4  13
TORSDOF 3
ENDMDL
