MODEL 1
REMARK VINA RESULT:      -7.6      0.000      0.000
REMARK  Name = min_compound949.pdb
REMARK  5 active torsions:
REMARK  status: ('A' for Active; 'I' for Inactive)
REMARK    1  A    between atoms: _1  and  _18
REMARK    2  A    between atoms: _2  and  _17
REMARK    3  A    between atoms: _3  and  _19
REMARK    4  A    between atoms: _10  and  _16
REMARK    5  A    between atoms: _16  and  _17
REMARK                            x       y       z     vdW  Elec       q    Type
REMARK                         _______ _______ _______ _____ _____    ______ ____
ROOT
ATOM      1  C   UNL     1     -12.907   6.385 -17.568  0.00  0.00    +0.049 A 
ATOM      2  C   UNL     1     -11.844   7.005 -18.450  0.00  0.00    +0.066 C 
ATOM      3  C   UNL     1     -12.784   4.922 -17.178  0.00  0.00    +0.035 A 
ATOM      4  C   UNL     1     -13.754   4.489 -16.347  0.00  0.00    +0.220 A 
ATOM      5  N   UNL     1     -14.781   5.350 -15.943  0.00  0.00    -0.182 N 
ATOM      6  N   UNL     1     -15.823   5.040 -15.123  0.00  0.00    -0.170 NA
ATOM      7  C   UNL     1     -16.527   6.173 -15.062  0.00  0.00    +0.137 A 
ATOM      8  C   UNL     1     -15.962   7.210 -15.823  0.00  0.00    +0.069 A 
ATOM      9  C   UNL     1     -14.832   6.662 -16.383  0.00  0.00    +0.159 A 
ATOM     10  N   UNL     1     -13.874   7.182 -17.199  0.00  0.00    -0.232 NA
ENDROOT
BRANCH   4  11
ATOM     11  O   UNL     1     -13.780   3.183 -15.873  0.00  0.00    -0.492 OA
ATOM     12  H   UNL     1     -13.720   3.260 -14.895  0.00  0.00    +0.294 HD
ENDBRANCH   4  11
BRANCH   3  13
ATOM     13  C   UNL     1     -11.670   4.038 -17.685  0.00  0.00    +0.047 C 
BRANCH  13  14
ATOM     14  C   UNL     1     -10.410   3.981 -16.702  0.00  0.00    +0.040 C 
BRANCH  14  15
ATOM     15  C   UNL     1     -10.528   1.961 -16.705  0.00  0.00    -0.047 A 
ATOM     16  C   UNL     1      -9.826   1.320 -17.731  0.00  0.00    +0.003 A 
ATOM     17  C   UNL     1      -9.332   0.049 -17.459  0.00  0.00    +0.000 A 
ATOM     18  C   UNL     1      -9.511  -0.524 -16.191  0.00  0.00    +0.000 A 
ATOM     19  C   UNL     1     -10.189   0.166 -15.175  0.00  0.00    +0.000 A 
ATOM     20  C   UNL     1     -10.688   1.441 -15.414  0.00  0.00    +0.003 A 
ENDBRANCH  14  15
ENDBRANCH  13  14
ENDBRANCH   3  13
TORSDOF 4
ENDMDL
MODEL 2
REMARK VINA RESULT:      -7.6      1.266      2.310
REMARK  Name = min_compound949.pdb
REMARK  5 active torsions:
REMARK  status: ('A' for Active; 'I' for Inactive)
REMARK    1  A    between atoms: _1  and  _18
REMARK    2  A    between atoms: _2  and  _17
REMARK    3  A    between atoms: _3  and  _19
REMARK    4  A    between atoms: _10  and  _16
REMARK    5  A    between atoms: _16  and  _17
REMARK                            x       y       z     vdW  Elec       q    Type
REMARK                         _______ _______ _______ _____ _____    ______ ____
ROOT
ATOM      1  C   UNL     1     -13.869   4.345 -16.396  0.00  0.00    +0.049 A 
ATOM      2  C   UNL     1     -13.898   2.876 -16.033  0.00  0.00    +0.066 C 
ATOM      3  C   UNL     1     -12.714   4.879 -17.226  0.00  0.00    +0.035 A 
ATOM      4  C   UNL     1     -12.816   6.188 -17.536  0.00  0.00    +0.220 A 
ATOM      5  N   UNL     1     -13.898   6.946 -17.074  0.00  0.00    -0.182 N 
ATOM      6  N   UNL     1     -14.115   8.271 -17.301  0.00  0.00    -0.170 NA
ATOM      7  C   UNL     1     -15.249   8.524 -16.642  0.00  0.00    +0.137 A 
ATOM      8  C   UNL     1     -15.771   7.392 -15.995  0.00  0.00    +0.069 A 
ATOM      9  C   UNL     1     -14.888   6.379 -16.287  0.00  0.00    +0.159 A 
ATOM     10  N   UNL     1     -14.871   5.060 -15.955  0.00  0.00    -0.232 NA
ENDROOT
BRANCH   4  11
ATOM     11  O   UNL     1     -11.858   6.832 -18.309  0.00  0.00    -0.492 OA
ATOM     12  H   UNL     1     -11.164   7.121 -17.675  0.00  0.00    +0.294 HD
ENDBRANCH   4  11
BRANCH   3  13
ATOM     13  C   UNL     1     -11.555   4.013 -17.656  0.00  0.00    +0.047 C 
BRANCH  13  14
ATOM     14  C   UNL     1     -10.395   3.920 -16.560  0.00  0.00    +0.040 C 
BRANCH  14  15
ATOM     15  C   UNL     1     -10.498   1.901 -16.655  0.00  0.00    -0.047 A 
ATOM     16  C   UNL     1      -9.795   1.314 -17.712  0.00  0.00    +0.003 A 
ATOM     17  C   UNL     1      -9.291   0.035 -17.501  0.00  0.00    +0.000 A 
ATOM     18  C   UNL     1      -9.460  -0.598 -16.260  0.00  0.00    +0.000 A 
ATOM     19  C   UNL     1     -10.139   0.040 -15.211  0.00  0.00    +0.000 A 
ATOM     20  C   UNL     1     -10.649   1.320 -15.389  0.00  0.00    +0.003 A 
ENDBRANCH  14  15
ENDBRANCH  13  14
ENDBRANCH   3  13
TORSDOF 4
ENDMDL
MODEL 3
REMARK VINA RESULT:      -7.2      3.030      6.497
REMARK  Name = min_compound949.pdb
REMARK  5 active torsions:
REMARK  status: ('A' for Active; 'I' for Inactive)
REMARK    1  A    between atoms: _1  and  _18
REMARK    2  A    between atoms: _2  and  _17
REMARK    3  A    between atoms: _3  and  _19
REMARK    4  A    between atoms: _10  and  _16
REMARK    5  A    between atoms: _16  and  _17
REMARK                            x       y       z     vdW  Elec       q    Type
REMARK                         _______ _______ _______ _____ _____    ______ ____
ROOT
ATOM      1  C   UNL     1     -12.385   2.247 -18.126  0.00  0.00    +0.049 A 
ATOM      2  C   UNL     1     -13.399   2.763 -19.124  0.00  0.00    +0.066 C 
ATOM      3  C   UNL     1     -11.886   3.176 -17.032  0.00  0.00    +0.035 A 
ATOM      4  C   UNL     1     -11.027   2.598 -16.166  0.00  0.00    +0.220 A 
ATOM      5  N   UNL     1     -10.639   1.264 -16.335  0.00  0.00    -0.182 N 
ATOM      6  N   UNL     1      -9.775   0.566 -15.547  0.00  0.00    -0.170 NA
ATOM      7  C   UNL     1      -9.718  -0.636 -16.126  0.00  0.00    +0.137 A 
ATOM      8  C   UNL     1     -10.528  -0.732 -17.269  0.00  0.00    +0.069 A 
ATOM      9  C   UNL     1     -11.119   0.504 -17.388  0.00  0.00    +0.159 A 
ATOM     10  N   UNL     1     -12.010   1.006 -18.286  0.00  0.00    -0.232 NA
ENDROOT
BRANCH   4  11
ATOM     11  O   UNL     1     -10.491   3.298 -15.092  0.00  0.00    -0.492 OA
ATOM     12  H   UNL     1     -10.052   2.619 -14.533  0.00  0.00    +0.294 HD
ENDBRANCH   4  11
BRANCH   3  13
ATOM     13  C   UNL     1     -12.315   4.620 -16.934  0.00  0.00    +0.047 C 
BRANCH  13  14
ATOM     14  C   UNL     1     -11.127   5.653 -17.215  0.00  0.00    +0.040 C 
BRANCH  14  15
ATOM     15  C   UNL     1     -12.351   6.690 -18.448  0.00  0.00    -0.047 A 
ATOM     16  C   UNL     1     -12.343   6.281 -19.785  0.00  0.00    +0.003 A 
ATOM     17  C   UNL     1     -13.520   6.455 -20.505  0.00  0.00    +0.000 A 
ATOM     18  C   UNL     1     -14.660   6.985 -19.882  0.00  0.00    +0.000 A 
ATOM     19  C   UNL     1     -14.639   7.350 -18.527  0.00  0.00    +0.000 A 
ATOM     20  C   UNL     1     -13.480   7.181 -17.780  0.00  0.00    +0.003 A 
ENDBRANCH  14  15
ENDBRANCH  13  14
ENDBRANCH   3  13
TORSDOF 4
ENDMDL
MODEL 4
REMARK VINA RESULT:      -7.2      3.327      6.484
REMARK  Name = min_compound949.pdb
REMARK  5 active torsions:
REMARK  status: ('A' for Active; 'I' for Inactive)
REMARK    1  A    between atoms: _1  and  _18
REMARK    2  A    between atoms: _2  and  _17
REMARK    3  A    between atoms: _3  and  _19
REMARK    4  A    between atoms: _10  and  _16
REMARK    5  A    between atoms: _16  and  _17
REMARK                            x       y       z     vdW  Elec       q    Type
REMARK                         _______ _______ _______ _____ _____    ______ ____
ROOT
ATOM      1  C   UNL     1     -12.452   1.871 -18.189  0.00  0.00    +0.049 A 
ATOM      2  C   UNL     1     -13.417   2.330 -19.261  0.00  0.00    +0.066 C 
ATOM      3  C   UNL     1     -12.358   2.656 -16.892  0.00  0.00    +0.035 A 
ATOM      4  C   UNL     1     -11.508   2.128 -15.987  0.00  0.00    +0.220 A 
ATOM      5  N   UNL     1     -10.775   0.974 -16.290  0.00  0.00    -0.182 N 
ATOM      6  N   UNL     1      -9.879   0.348 -15.478  0.00  0.00    -0.170 NA
ATOM      7  C   UNL     1      -9.441  -0.674 -16.218  0.00  0.00    +0.137 A 
ATOM      8  C   UNL     1     -10.036  -0.724 -17.489  0.00  0.00    +0.069 A 
ATOM      9  C   UNL     1     -10.899   0.346 -17.518  0.00  0.00    +0.159 A 
ATOM     10  N   UNL     1     -11.756   0.801 -18.472  0.00  0.00    -0.232 NA
ENDROOT
BRANCH   4  11
ATOM     11  O   UNL     1     -11.318   2.707 -14.738  0.00  0.00    -0.492 OA
ATOM     12  H   UNL     1     -10.592   2.192 -14.321  0.00  0.00    +0.294 HD
ENDBRANCH   4  11
BRANCH   3  13
ATOM     13  C   UNL     1     -13.148   3.919 -16.649  0.00  0.00    +0.047 C 
BRANCH  13  14
ATOM     14  C   UNL     1     -14.707   3.760 -16.968  0.00  0.00    +0.040 C 
BRANCH  14  15
ATOM     15  C   UNL     1     -15.046   3.386 -15.008  0.00  0.00    -0.047 A 
ATOM     16  C   UNL     1     -14.743   4.436 -14.135  0.00  0.00    +0.003 A 
ATOM     17  C   UNL     1     -15.495   4.523 -12.968  0.00  0.00    +0.000 A 
ATOM     18  C   UNL     1     -16.529   3.607 -12.722  0.00  0.00    +0.000 A 
ATOM     19  C   UNL     1     -16.826   2.589 -13.640  0.00  0.00    +0.000 A 
ATOM     20  C   UNL     1     -16.098   2.481 -14.818  0.00  0.00    +0.003 A 
ENDBRANCH  14  15
ENDBRANCH  13  14
ENDBRANCH   3  13
TORSDOF 4
ENDMDL
MODEL 5
REMARK VINA RESULT:      -7.1     14.974     17.379
REMARK  Name = min_compound949.pdb
REMARK  5 active torsions:
REMARK  status: ('A' for Active; 'I' for Inactive)
REMARK    1  A    between atoms: _1  and  _18
REMARK    2  A    between atoms: _2  and  _17
REMARK    3  A    between atoms: _3  and  _19
REMARK    4  A    between atoms: _10  and  _16
REMARK    5  A    between atoms: _16  and  _17
REMARK                            x       y       z     vdW  Elec       q    Type
REMARK                         _______ _______ _______ _____ _____    ______ ____
ROOT
ATOM      1  C   UNL     1     -15.947  -4.407  -1.832  0.00  0.00    +0.049 A 
ATOM      2  C   UNL     1     -17.190  -3.659  -2.266  0.00  0.00    +0.066 C 
ATOM      3  C   UNL     1     -14.642  -3.645  -1.680  0.00  0.00    +0.035 A 
ATOM      4  C   UNL     1     -13.613  -4.397  -1.237  0.00  0.00    +0.220 A 
ATOM      5  N   UNL     1     -13.786  -5.764  -0.991  0.00  0.00    -0.182 N 
ATOM      6  N   UNL     1     -12.834  -6.636  -0.556  0.00  0.00    -0.170 NA
ATOM      7  C   UNL     1     -13.477  -7.804  -0.498  0.00  0.00    +0.137 A 
ATOM      8  C   UNL     1     -14.824  -7.708  -0.883  0.00  0.00    +0.069 A 
ATOM      9  C   UNL     1     -15.009  -6.381  -1.195  0.00  0.00    +0.159 A 
ATOM     10  N   UNL     1     -16.101  -5.686  -1.613  0.00  0.00    -0.232 NA
ENDROOT
BRANCH   4  11
ATOM     11  O   UNL     1     -12.352  -3.854  -1.020  0.00  0.00    -0.492 OA
ATOM     12  H   UNL     1     -12.038  -4.253  -0.178  0.00  0.00    +0.294 HD
ENDBRANCH   4  11
BRANCH   3  13
ATOM     13  C   UNL     1     -14.516  -2.177  -2.005  0.00  0.00    +0.047 C 
BRANCH  13  14
ATOM     14  C   UNL     1     -14.520  -1.874  -3.575  0.00  0.00    +0.040 C 
BRANCH  14  15
ATOM     15  C   UNL     1     -14.683   0.102  -3.171  0.00  0.00    -0.047 A 
ATOM     16  C   UNL     1     -13.485   0.823  -3.209  0.00  0.00    +0.003 A 
ATOM     17  C   UNL     1     -13.566   2.162  -3.578  0.00  0.00    +0.000 A 
ATOM     18  C   UNL     1     -14.801   2.727  -3.928  0.00  0.00    +0.000 A 
ATOM     19  C   UNL     1     -15.976   1.961  -3.913  0.00  0.00    +0.000 A 
ATOM     20  C   UNL     1     -15.926   0.619  -3.556  0.00  0.00    +0.003 A 
ENDBRANCH  14  15
ENDBRANCH  13  14
ENDBRANCH   3  13
TORSDOF 4
ENDMDL
MODEL 6
REMARK VINA RESULT:      -7.1      3.134      6.437
REMARK  Name = min_compound949.pdb
REMARK  5 active torsions:
REMARK  status: ('A' for Active; 'I' for Inactive)
REMARK    1  A    between atoms: _1  and  _18
REMARK    2  A    between atoms: _2  and  _17
REMARK    3  A    between atoms: _3  and  _19
REMARK    4  A    between atoms: _10  and  _16
REMARK    5  A    between atoms: _16  and  _17
REMARK                            x       y       z     vdW  Elec       q    Type
REMARK                         _______ _______ _______ _____ _____    ______ ____
ROOT
ATOM      1  C   UNL     1     -10.898   3.330 -16.485  0.00  0.00    +0.049 A 
ATOM      2  C   UNL     1     -10.598   4.807 -16.344  0.00  0.00    +0.066 C 
ATOM      3  C   UNL     1     -12.283   2.820 -16.129  0.00  0.00    +0.035 A 
ATOM      4  C   UNL     1     -12.457   1.499 -16.344  0.00  0.00    +0.220 A 
ATOM      5  N   UNL     1     -11.403   0.712 -16.821  0.00  0.00    -0.182 N 
ATOM      6  N   UNL     1     -11.438  -0.627 -17.068  0.00  0.00    -0.170 NA
ATOM      7  C   UNL     1     -10.199  -0.906 -17.480  0.00  0.00    +0.137 A 
ATOM      8  C   UNL     1      -9.364   0.222 -17.508  0.00  0.00    +0.069 A 
ATOM      9  C   UNL     1     -10.158   1.261 -17.082  0.00  0.00    +0.159 A 
ATOM     10  N   UNL     1      -9.912   2.590 -16.918  0.00  0.00    -0.232 NA
ENDROOT
BRANCH   4  11
ATOM     11  O   UNL     1     -13.671   0.872 -16.093  0.00  0.00    -0.492 OA
ATOM     12  H   UNL     1     -14.079   0.733 -16.977  0.00  0.00    +0.294 HD
ENDBRANCH   4  11
BRANCH   3  13
ATOM     13  C   UNL     1     -13.363   3.719 -15.578  0.00  0.00    +0.047 C 
BRANCH  13  14
ATOM     14  C   UNL     1     -14.464   4.123 -16.665  0.00  0.00    +0.040 C 
BRANCH  14  15
ATOM     15  C   UNL     1     -15.877   4.082 -15.217  0.00  0.00    -0.047 A 
ATOM     16  C   UNL     1     -16.461   2.834 -14.984  0.00  0.00    +0.003 A 
ATOM     17  C   UNL     1     -16.904   2.576 -13.691  0.00  0.00    +0.000 A 
ATOM     18  C   UNL     1     -16.725   3.529 -12.677  0.00  0.00    +0.000 A 
ATOM     19  C   UNL     1     -16.100   4.757 -12.942  0.00  0.00    +0.000 A 
ATOM     20  C   UNL     1     -15.641   5.040 -14.223  0.00  0.00    +0.003 A 
ENDBRANCH  14  15
ENDBRANCH  13  14
ENDBRANCH   3  13
TORSDOF 4
ENDMDL
MODEL 7
REMARK VINA RESULT:      -6.9      3.003      6.808
REMARK  Name = min_compound949.pdb
REMARK  5 active torsions:
REMARK  status: ('A' for Active; 'I' for Inactive)
REMARK    1  A    between atoms: _1  and  _18
REMARK    2  A    between atoms: _2  and  _17
REMARK    3  A    between atoms: _3  and  _19
REMARK    4  A    between atoms: _10  and  _16
REMARK    5  A    between atoms: _16  and  _17
REMARK                            x       y       z     vdW  Elec       q    Type
REMARK                         _______ _______ _______ _____ _____    ______ ____
ROOT
ATOM      1  C   UNL     1     -13.144   2.261 -16.973  0.00  0.00    +0.049 A 
ATOM      2  C   UNL     1     -14.466   2.740 -17.533  0.00  0.00    +0.066 C 
ATOM      3  C   UNL     1     -12.199   3.269 -16.342  0.00  0.00    +0.035 A 
ATOM      4  C   UNL     1     -11.077   2.728 -15.827  0.00  0.00    +0.220 A 
ATOM      5  N   UNL     1     -10.841   1.351 -15.929  0.00  0.00    -0.182 N 
ATOM      6  N   UNL     1      -9.749   0.680 -15.467  0.00  0.00    -0.170 NA
ATOM      7  C   UNL     1      -9.982  -0.586 -15.822  0.00  0.00    +0.137 A 
ATOM      8  C   UNL     1     -11.201  -0.749 -16.500  0.00  0.00    +0.069 A 
ATOM      9  C   UNL     1     -11.745   0.512 -16.558  0.00  0.00    +0.159 A 
ATOM     10  N   UNL     1     -12.914   0.979 -17.077  0.00  0.00    -0.232 NA
ENDROOT
BRANCH   4  11
ATOM     11  O   UNL     1     -10.115   3.504 -15.193  0.00  0.00    -0.492 OA
ATOM     12  H   UNL     1      -9.252   3.177 -15.531  0.00  0.00    +0.294 HD
ENDBRANCH   4  11
BRANCH   3  13
ATOM     13  C   UNL     1     -12.498   4.749 -16.304  0.00  0.00    +0.047 C 
BRANCH  13  14
ATOM     14  C   UNL     1     -12.031   5.522 -17.624  0.00  0.00    +0.040 C 
BRANCH  14  15
ATOM     15  C   UNL     1     -13.886   6.315 -17.788  0.00  0.00    -0.047 A 
ATOM     16  C   UNL     1     -14.100   7.494 -17.068  0.00  0.00    +0.003 A 
ATOM     17  C   UNL     1     -15.022   8.394 -17.592  0.00  0.00    +0.000 A 
ATOM     18  C   UNL     1     -15.664   8.123 -18.809  0.00  0.00    +0.000 A 
ATOM     19  C   UNL     1     -15.395   6.945 -19.521  0.00  0.00    +0.000 A 
ATOM     20  C   UNL     1     -14.474   6.029 -19.027  0.00  0.00    +0.003 A 
ENDBRANCH  14  15
ENDBRANCH  13  14
ENDBRANCH   3  13
TORSDOF 4
ENDMDL
MODEL 8
REMARK VINA RESULT:      -6.8      2.811      6.535
REMARK  Name = min_compound949.pdb
REMARK  5 active torsions:
REMARK  status: ('A' for Active; 'I' for Inactive)
REMARK    1  A    between atoms: _1  and  _18
REMARK    2  A    between atoms: _2  and  _17
REMARK    3  A    between atoms: _3  and  _19
REMARK    4  A    between atoms: _10  and  _16
REMARK    5  A    between atoms: _16  and  _17
REMARK                            x       y       z     vdW  Elec       q    Type
REMARK                         _______ _______ _______ _____ _____    ______ ____
ROOT
ATOM      1  C   UNL     1     -10.927   3.408 -16.581  0.00  0.00    +0.049 A 
ATOM      2  C   UNL     1     -10.683   4.856 -16.211  0.00  0.00    +0.066 C 
ATOM      3  C   UNL     1     -11.855   3.088 -17.740  0.00  0.00    +0.035 A 
ATOM      4  C   UNL     1     -11.959   1.772 -18.017  0.00  0.00    +0.220 A 
ATOM      5  N   UNL     1     -11.274   0.827 -17.245  0.00  0.00    -0.182 N 
ATOM      6  N   UNL     1     -11.300  -0.525 -17.407  0.00  0.00    -0.170 NA
ATOM      7  C   UNL     1     -10.515  -0.977 -16.425  0.00  0.00    +0.137 A 
ATOM      8  C   UNL     1      -9.980   0.052 -15.634  0.00  0.00    +0.069 A 
ATOM      9  C   UNL     1     -10.477   1.213 -16.179  0.00  0.00    +0.159 A 
ATOM     10  N   UNL     1     -10.299   2.522 -15.854  0.00  0.00    -0.232 NA
ENDROOT
BRANCH   4  11
ATOM     11  O   UNL     1     -12.748   1.305 -19.061  0.00  0.00    -0.492 OA
ATOM     12  H   UNL     1     -13.648   1.202 -18.680  0.00  0.00    +0.294 HD
ENDBRANCH   4  11
BRANCH   3  13
ATOM     13  C   UNL     1     -12.597   4.158 -18.505  0.00  0.00    +0.047 C 
BRANCH  13  14
ATOM     14  C   UNL     1     -14.182   4.099 -18.297  0.00  0.00    +0.040 C 
BRANCH  14  15
ATOM     15  C   UNL     1     -14.082   5.812 -17.225  0.00  0.00    -0.047 A 
ATOM     16  C   UNL     1     -13.927   6.982 -17.975  0.00  0.00    +0.003 A 
ATOM     17  C   UNL     1     -14.471   8.147 -17.446  0.00  0.00    +0.000 A 
ATOM     18  C   UNL     1     -15.173   8.114 -16.232  0.00  0.00    +0.000 A 
ATOM     19  C   UNL     1     -15.338   6.913 -15.526  0.00  0.00    +0.000 A 
ATOM     20  C   UNL     1     -14.812   5.731 -16.032  0.00  0.00    +0.003 A 
ENDBRANCH  14  15
ENDBRANCH  13  14
ENDBRANCH   3  13
TORSDOF 4
ENDMDL
MODEL 9
REMARK VINA RESULT:      -6.8      9.971     11.646
REMARK  Name = min_compound949.pdb
REMARK  5 active torsions:
REMARK  status: ('A' for Active; 'I' for Inactive)
REMARK    1  A    between atoms: _1  and  _18
REMARK    2  A    between atoms: _2  and  _17
REMARK    3  A    between atoms: _3  and  _19
REMARK    4  A    between atoms: _10  and  _16
REMARK    5  A    between atoms: _16  and  _17
REMARK                            x       y       z     vdW  Elec       q    Type
REMARK                         _______ _______ _______ _____ _____    ______ ____
ROOT
ATOM      1  C   UNL     1     -15.629   1.510  -7.647  0.00  0.00    +0.049 A 
ATOM      2  C   UNL     1     -14.299   1.151  -7.018  0.00  0.00    +0.066 C 
ATOM      3  C   UNL     1     -16.911   1.020  -6.995  0.00  0.00    +0.035 A 
ATOM      4  C   UNL     1     -18.037   1.442  -7.606  0.00  0.00    +0.220 A 
ATOM      5  N   UNL     1     -17.966   2.233  -8.759  0.00  0.00    -0.182 N 
ATOM      6  N   UNL     1     -19.018   2.714  -9.478  0.00  0.00    -0.170 NA
ATOM      7  C   UNL     1     -18.440   3.379 -10.481  0.00  0.00    +0.137 A 
ATOM      8  C   UNL     1     -17.037   3.342 -10.425  0.00  0.00    +0.069 A 
ATOM      9  C   UNL     1     -16.747   2.600  -9.305  0.00  0.00    +0.159 A 
ATOM     10  N   UNL     1     -15.567   2.237  -8.731  0.00  0.00    -0.232 NA
ENDROOT
BRANCH   4  11
ATOM     11  O   UNL     1     -19.298   1.106  -7.128  0.00  0.00    -0.492 OA
ATOM     12  H   UNL     1     -19.354   0.128  -7.210  0.00  0.00    +0.294 HD
ENDBRANCH   4  11
BRANCH   3  13
ATOM     13  C   UNL     1     -16.913   0.133  -5.774  0.00  0.00    +0.047 C 
BRANCH  13  14
ATOM     14  C   UNL     1     -17.775   0.725  -4.564  0.00  0.00    +0.040 C 
BRANCH  14  15
ATOM     15  C   UNL     1     -16.061   1.085  -3.549  0.00  0.00    -0.047 A 
ATOM     16  C   UNL     1     -15.276  -0.041  -3.279  0.00  0.00    +0.003 A 
ATOM     17  C   UNL     1     -13.902   0.153  -3.196  0.00  0.00    +0.000 A 
ATOM     18  C   UNL     1     -13.351   1.425  -3.417  0.00  0.00    +0.000 A 
ATOM     19  C   UNL     1     -14.169   2.523  -3.723  0.00  0.00    +0.000 A 
ATOM     20  C   UNL     1     -15.546   2.359  -3.819  0.00  0.00    +0.003 A 
ENDBRANCH  14  15
ENDBRANCH  13  14
ENDBRANCH   3  13
TORSDOF 4
ENDMDL
