MODEL 1
REMARK VINA RESULT:      -8.0      0.000      0.000
REMARK  Name = min_compound982.pdb
REMARK  0 active torsions:
REMARK  status: ('A' for Active; 'I' for Inactive)
REMARK                            x       y       z     vdW  Elec       q    Type
REMARK                         _______ _______ _______ _____ _____    ______ ____
ROOT
ATOM      1  C   UNL     1     -12.354   5.496 -18.083  0.00  0.00    +0.040 C 
ATOM      2  C   UNL     1     -13.492   6.190 -17.391  0.00  0.00    -0.040 A 
ATOM      3  C   UNL     1     -13.693   7.550 -17.732  0.00  0.00    +0.004 A 
ATOM      4  C   UNL     1     -14.683   8.316 -17.131  0.00  0.00    +0.000 A 
ATOM      5  C   UNL     1     -15.503   7.732 -16.187  0.00  0.00    +0.000 A 
ATOM      6  C   UNL     1     -15.328   6.385 -15.858  0.00  0.00    +0.008 A 
ATOM      7  C   UNL     1     -14.315   5.565 -16.433  0.00  0.00    +0.004 A 
ATOM      8  C   UNL     1     -14.265   4.070 -16.009  0.00  0.00    +0.168 C 
ATOM      9  C   UNL     1     -14.417   3.915 -14.469  0.00  0.00    +0.099 C 
ATOM     10  C   UNL     1     -15.818   3.449 -14.309  0.00  0.00    +0.034 C 
ATOM     11  C   UNL     1     -16.507   3.290 -13.173  0.00  0.00    +0.019 C 
ATOM     12  C   UNL     1     -16.402   3.192 -15.638  0.00  0.00    +0.336 C 
ATOM     13  O   UNL     1     -17.513   2.744 -15.856  0.00  0.00    -0.245 OA
ATOM     14  O   UNL     1     -15.486   3.522 -16.582  0.00  0.00    -0.445 OA
ATOM     15  C   UNL     1     -13.130   3.099 -16.434  0.00  0.00    +0.004 A 
ATOM     16  C   UNL     1     -13.390   1.702 -16.337  0.00  0.00    +0.008 A 
ATOM     17  C   UNL     1     -12.408   0.732 -16.547  0.00  0.00    +0.000 A 
ATOM     18  C   UNL     1     -11.119   1.121 -16.865  0.00  0.00    +0.000 A 
ATOM     19  C   UNL     1     -10.830   2.474 -16.993  0.00  0.00    +0.004 A 
ATOM     20  C   UNL     1     -11.819   3.465 -16.795  0.00  0.00    -0.040 A 
ATOM     21  C   UNL     1     -11.413   4.885 -17.058  0.00  0.00    +0.040 C 
ENDROOT
TORSDOF 0
ENDMDL
MODEL 2
REMARK VINA RESULT:      -7.6     12.733     14.565
REMARK  Name = min_compound982.pdb
REMARK  0 active torsions:
REMARK  status: ('A' for Active; 'I' for Inactive)
REMARK                            x       y       z     vdW  Elec       q    Type
REMARK                         _______ _______ _______ _____ _____    ______ ____
ROOT
ATOM      1  C   UNL     1     -17.211   1.798  -4.328  0.00  0.00    +0.040 C 
ATOM      2  C   UNL     1     -15.797   1.557  -3.882  0.00  0.00    -0.040 A 
ATOM      3  C   UNL     1     -14.918   2.664  -3.970  0.00  0.00    +0.004 A 
ATOM      4  C   UNL     1     -13.576   2.561  -3.630  0.00  0.00    +0.000 A 
ATOM      5  C   UNL     1     -13.088   1.351  -3.180  0.00  0.00    +0.000 A 
ATOM      6  C   UNL     1     -13.951   0.257  -3.069  0.00  0.00    +0.008 A 
ATOM      7  C   UNL     1     -15.330   0.309  -3.424  0.00  0.00    +0.004 A 
ATOM      8  C   UNL     1     -16.184  -0.971  -3.205  0.00  0.00    +0.168 C 
ATOM      9  C   UNL     1     -15.440  -2.239  -3.712  0.00  0.00    +0.099 C 
ATOM     10  C   UNL     1     -14.968  -2.883  -2.459  0.00  0.00    +0.034 C 
ATOM     11  C   UNL     1     -14.155  -3.938  -2.333  0.00  0.00    +0.019 C 
ATOM     12  C   UNL     1     -15.516  -2.155  -1.299  0.00  0.00    +0.336 C 
ATOM     13  O   UNL     1     -15.369  -2.461  -0.130  0.00  0.00    -0.245 OA
ATOM     14  O   UNL     1     -16.229  -1.096  -1.754  0.00  0.00    -0.445 OA
ATOM     15  C   UNL     1     -17.656  -1.109  -3.683  0.00  0.00    +0.004 A 
ATOM     16  C   UNL     1     -18.447  -2.131  -3.086  0.00  0.00    +0.008 A 
ATOM     17  C   UNL     1     -19.731  -2.453  -3.531  0.00  0.00    +0.000 A 
ATOM     18  C   UNL     1     -20.279  -1.760  -4.595  0.00  0.00    +0.000 A 
ATOM     19  C   UNL     1     -19.549  -0.739  -5.190  0.00  0.00    +0.004 A 
ATOM     20  C   UNL     1     -18.253  -0.396  -4.740  0.00  0.00    -0.040 A 
ATOM     21  C   UNL     1     -17.603   0.788  -5.393  0.00  0.00    +0.040 C 
ENDROOT
TORSDOF 0
ENDMDL
MODEL 3
REMARK VINA RESULT:      -7.6      1.280      4.612
REMARK  Name = min_compound982.pdb
REMARK  0 active torsions:
REMARK  status: ('A' for Active; 'I' for Inactive)
REMARK                            x       y       z     vdW  Elec       q    Type
REMARK                         _______ _______ _______ _____ _____    ______ ____
ROOT
ATOM      1  C   UNL     1     -11.414   5.722 -17.318  0.00  0.00    +0.040 C 
ATOM      2  C   UNL     1     -11.559   4.307 -16.834  0.00  0.00    -0.040 A 
ATOM      3  C   UNL     1     -10.410   3.488 -16.948  0.00  0.00    +0.004 A 
ATOM      4  C   UNL     1     -10.425   2.150 -16.578  0.00  0.00    +0.000 A 
ATOM      5  C   UNL     1     -11.588   1.607 -16.070  0.00  0.00    +0.000 A 
ATOM      6  C   UNL     1     -12.723   2.412 -15.934  0.00  0.00    +0.008 A 
ATOM      7  C   UNL     1     -12.761   3.783 -16.318  0.00  0.00    +0.004 A 
ATOM      8  C   UNL     1     -14.078   4.570 -16.066  0.00  0.00    +0.168 C 
ATOM      9  C   UNL     1     -15.321   3.747 -16.507  0.00  0.00    +0.099 C 
ATOM     10  C   UNL     1     -15.888   3.269 -15.221  0.00  0.00    +0.034 C 
ATOM     11  C   UNL     1     -16.892   2.402 -15.037  0.00  0.00    +0.019 C 
ATOM     12  C   UNL     1     -15.149   3.881 -14.102  0.00  0.00    +0.336 C 
ATOM     13  O   UNL     1     -15.400   3.744 -12.919  0.00  0.00    -0.245 OA
ATOM     14  O   UNL     1     -14.149   4.641 -14.612  0.00  0.00    -0.445 OA
ATOM     15  C   UNL     1     -14.315   6.021 -16.567  0.00  0.00    +0.004 A 
ATOM     16  C   UNL     1     -15.356   6.769 -15.947  0.00  0.00    +0.008 A 
ATOM     17  C   UNL     1     -15.765   8.023 -16.405  0.00  0.00    +0.000 A 
ATOM     18  C   UNL     1     -15.145   8.585 -17.506  0.00  0.00    +0.000 A 
ATOM     19  C   UNL     1     -14.108   7.898 -18.125  0.00  0.00    +0.004 A 
ATOM     20  C   UNL     1     -13.677   6.633 -17.663  0.00  0.00    -0.040 A 
ATOM     21  C   UNL     1     -12.485   6.034 -18.350  0.00  0.00    +0.040 C 
ENDROOT
TORSDOF 0
ENDMDL
MODEL 4
REMARK VINA RESULT:      -7.6      1.694      4.647
REMARK  Name = min_compound982.pdb
REMARK  0 active torsions:
REMARK  status: ('A' for Active; 'I' for Inactive)
REMARK                            x       y       z     vdW  Elec       q    Type
REMARK                         _______ _______ _______ _____ _____    ______ ____
ROOT
ATOM      1  C   UNL     1     -16.034   5.542 -17.153  0.00  0.00    +0.040 C 
ATOM      2  C   UNL     1     -16.005   4.273 -16.350  0.00  0.00    -0.040 A 
ATOM      3  C   UNL     1     -17.232   3.880 -15.760  0.00  0.00    +0.004 A 
ATOM      4  C   UNL     1     -17.329   2.751 -14.958  0.00  0.00    +0.000 A 
ATOM      5  C   UNL     1     -16.204   1.981 -14.743  0.00  0.00    +0.000 A 
ATOM      6  C   UNL     1     -14.993   2.347 -15.338  0.00  0.00    +0.008 A 
ATOM      7  C   UNL     1     -14.840   3.506 -16.151  0.00  0.00    +0.004 A 
ATOM      8  C   UNL     1     -13.445   3.766 -16.788  0.00  0.00    +0.168 C 
ATOM      9  C   UNL     1     -12.305   3.555 -15.752  0.00  0.00    +0.099 C 
ATOM     10  C   UNL     1     -11.735   2.238 -16.135  0.00  0.00    +0.034 C 
ATOM     11  C   UNL     1     -10.813   1.520 -15.482  0.00  0.00    +0.019 C 
ATOM     12  C   UNL     1     -12.369   1.775 -17.383  0.00  0.00    +0.336 C 
ATOM     13  O   UNL     1     -12.085   0.762 -17.996  0.00  0.00    -0.245 OA
ATOM     14  O   UNL     1     -13.311   2.679 -17.748  0.00  0.00    -0.445 OA
ATOM     15  C   UNL     1     -13.090   5.061 -17.569  0.00  0.00    +0.004 A 
ATOM     16  C   UNL     1     -11.960   5.018 -18.432  0.00  0.00    +0.008 A 
ATOM     17  C   UNL     1     -11.451   6.150 -19.073  0.00  0.00    +0.000 A 
ATOM     18  C   UNL     1     -12.057   7.377 -18.876  0.00  0.00    +0.000 A 
ATOM     19  C   UNL     1     -13.178   7.458 -18.059  0.00  0.00    +0.004 A 
ATOM     20  C   UNL     1     -13.709   6.316 -17.415  0.00  0.00    -0.040 A 
ATOM     21  C   UNL     1     -14.980   6.508 -16.640  0.00  0.00    +0.040 C 
ENDROOT
TORSDOF 0
ENDMDL
MODEL 5
REMARK VINA RESULT:      -7.5      1.685      4.373
REMARK  Name = min_compound982.pdb
REMARK  0 active torsions:
REMARK  status: ('A' for Active; 'I' for Inactive)
REMARK                            x       y       z     vdW  Elec       q    Type
REMARK                         _______ _______ _______ _____ _____    ______ ____
ROOT
ATOM      1  C   UNL     1     -15.209   6.640 -16.581  0.00  0.00    +0.040 C 
ATOM      2  C   UNL     1     -13.920   6.366 -17.302  0.00  0.00    -0.040 A 
ATOM      3  C   UNL     1     -13.319   7.474 -17.948  0.00  0.00    +0.004 A 
ATOM      4  C   UNL     1     -12.150   7.345 -18.686  0.00  0.00    +0.000 A 
ATOM      5  C   UNL     1     -11.549   6.106 -18.779  0.00  0.00    +0.000 A 
ATOM      6  C   UNL     1     -12.122   5.009 -18.129  0.00  0.00    +0.008 A 
ATOM      7  C   UNL     1     -13.329   5.089 -17.378  0.00  0.00    +0.004 A 
ATOM      8  C   UNL     1     -13.828   3.799 -16.667  0.00  0.00    +0.168 C 
ATOM      9  C   UNL     1     -13.740   2.566 -17.611  0.00  0.00    +0.099 C 
ATOM     10  C   UNL     1     -12.545   1.839 -17.113  0.00  0.00    +0.034 C 
ATOM     11  C   UNL     1     -11.943   0.775 -17.659  0.00  0.00    +0.019 C 
ATOM     12  C   UNL     1     -12.054   2.489 -15.884  0.00  0.00    +0.336 C 
ATOM     13  O   UNL     1     -11.126   2.105 -15.194  0.00  0.00    -0.245 OA
ATOM     14  O   UNL     1     -12.822   3.578 -15.637  0.00  0.00    -0.445 OA
ATOM     15  C   UNL     1     -15.198   3.697 -15.943  0.00  0.00    +0.004 A 
ATOM     16  C   UNL     1     -15.369   2.640 -15.006  0.00  0.00    +0.008 A 
ATOM     17  C   UNL     1     -16.595   2.352 -14.402  0.00  0.00    +0.000 A 
ATOM     18  C   UNL     1     -17.705   3.116 -14.712  0.00  0.00    +0.000 A 
ATOM     19  C   UNL     1     -17.575   4.173 -15.604  0.00  0.00    +0.004 A 
ATOM     20  C   UNL     1     -16.337   4.481 -16.212  0.00  0.00    -0.040 A 
ATOM     21  C   UNL     1     -16.297   5.705 -17.080  0.00  0.00    +0.040 C 
ENDROOT
TORSDOF 0
ENDMDL
MODEL 6
REMARK VINA RESULT:      -7.5     12.459     14.478
REMARK  Name = min_compound982.pdb
REMARK  0 active torsions:
REMARK  status: ('A' for Active; 'I' for Inactive)
REMARK                            x       y       z     vdW  Elec       q    Type
REMARK                         _______ _______ _______ _____ _____    ______ ____
ROOT
ATOM      1  C   UNL     1     -17.490   0.951  -5.461  0.00  0.00    +0.040 C 
ATOM      2  C   UNL     1     -18.198  -0.231  -4.862  0.00  0.00    -0.040 A 
ATOM      3  C   UNL     1     -19.469  -0.538  -5.408  0.00  0.00    +0.004 A 
ATOM      4  C   UNL     1     -20.245  -1.578  -4.913  0.00  0.00    +0.000 A 
ATOM      5  C   UNL     1     -19.758  -2.343  -3.872  0.00  0.00    +0.000 A 
ATOM      6  C   UNL     1     -18.496  -2.062  -3.340  0.00  0.00    +0.008 A 
ATOM      7  C   UNL     1     -17.673  -0.995  -3.800  0.00  0.00    +0.004 A 
ATOM      8  C   UNL     1     -16.272  -0.827  -3.149  0.00  0.00    +0.168 C 
ATOM      9  C   UNL     1     -16.351  -0.952  -1.601  0.00  0.00    +0.099 C 
ATOM     10  C   UNL     1     -15.813  -2.312  -1.340  0.00  0.00    +0.034 C 
ATOM     11  C   UNL     1     -15.785  -2.976  -0.179  0.00  0.00    +0.019 C 
ATOM     12  C   UNL     1     -15.307  -2.887  -2.600  0.00  0.00    +0.336 C 
ATOM     13  O   UNL     1     -14.750  -3.963  -2.721  0.00  0.00    -0.245 OA
ATOM     14  O   UNL     1     -15.551  -2.008  -3.603  0.00  0.00    -0.445 OA
ATOM     15  C   UNL     1     -15.332   0.375  -3.441  0.00  0.00    +0.004 A 
ATOM     16  C   UNL     1     -13.953   0.223  -3.121  0.00  0.00    +0.008 A 
ATOM     17  C   UNL     1     -13.037   1.275  -3.197  0.00  0.00    +0.000 A 
ATOM     18  C   UNL     1     -13.464   2.527  -3.600  0.00  0.00    +0.000 A 
ATOM     19  C   UNL     1     -14.798   2.710  -3.944  0.00  0.00    +0.004 A 
ATOM     20  C   UNL     1     -15.732   1.651  -3.883  0.00  0.00    -0.040 A 
ATOM     21  C   UNL     1     -17.119   1.944  -4.374  0.00  0.00    +0.040 C 
ENDROOT
TORSDOF 0
ENDMDL
MODEL 7
REMARK VINA RESULT:      -7.3      8.907     12.629
REMARK  Name = min_compound982.pdb
REMARK  0 active torsions:
REMARK  status: ('A' for Active; 'I' for Inactive)
REMARK                            x       y       z     vdW  Elec       q    Type
REMARK                         _______ _______ _______ _____ _____    ______ ____
ROOT
ATOM      1  C   UNL     1     -17.661  -0.790  -3.364  0.00  0.00    +0.040 C 
ATOM      2  C   UNL     1     -18.495  -0.584  -4.596  0.00  0.00    -0.040 A 
ATOM      3  C   UNL     1     -19.721  -1.290  -4.644  0.00  0.00    +0.004 A 
ATOM      4  C   UNL     1     -20.563  -1.221  -5.746  0.00  0.00    +0.000 A 
ATOM      5  C   UNL     1     -20.202  -0.430  -6.818  0.00  0.00    +0.000 A 
ATOM      6  C   UNL     1     -19.003   0.288  -6.773  0.00  0.00    +0.008 A 
ATOM      7  C   UNL     1     -18.099   0.233  -5.674  0.00  0.00    +0.004 A 
ATOM      8  C   UNL     1     -16.825   1.121  -5.738  0.00  0.00    +0.168 C 
ATOM      9  C   UNL     1     -16.143   1.030  -7.133  0.00  0.00    +0.099 C 
ATOM     10  C   UNL     1     -16.523   2.310  -7.783  0.00  0.00    +0.034 C 
ATOM     11  C   UNL     1     -16.309   2.682  -9.051  0.00  0.00    +0.019 C 
ATOM     12  C   UNL     1     -17.231   3.162  -6.811  0.00  0.00    +0.336 C 
ATOM     13  O   UNL     1     -17.623   4.297  -7.008  0.00  0.00    -0.245 OA
ATOM     14  O   UNL     1     -17.358   2.474  -5.649  0.00  0.00    -0.445 OA
ATOM     15  C   UNL     1     -15.681   1.053  -4.689  0.00  0.00    +0.004 A 
ATOM     16  C   UNL     1     -14.789   2.160  -4.616  0.00  0.00    +0.008 A 
ATOM     17  C   UNL     1     -13.640   2.157  -3.823  0.00  0.00    +0.000 A 
ATOM     18  C   UNL     1     -13.335   1.041  -3.066  0.00  0.00    +0.000 A 
ATOM     19  C   UNL     1     -14.193  -0.052  -3.090  0.00  0.00    +0.004 A 
ATOM     20  C   UNL     1     -15.366  -0.055  -3.880  0.00  0.00    -0.040 A 
ATOM     21  C   UNL     1     -16.265  -1.250  -3.748  0.00  0.00    +0.040 C 
ENDROOT
TORSDOF 0
ENDMDL
MODEL 8
REMARK VINA RESULT:      -7.2      9.982     13.063
REMARK  Name = min_compound982.pdb
REMARK  0 active torsions:
REMARK  status: ('A' for Active; 'I' for Inactive)
REMARK                            x       y       z     vdW  Elec       q    Type
REMARK                         _______ _______ _______ _____ _____    ______ ____
ROOT
ATOM      1  C   UNL     1     -14.019  -0.304  -5.362  0.00  0.00    +0.040 C 
ATOM      2  C   UNL     1     -15.088   0.443  -6.107  0.00  0.00    -0.040 A 
ATOM      3  C   UNL     1     -14.670   1.135  -7.271  0.00  0.00    +0.004 A 
ATOM      4  C   UNL     1     -15.551   1.899  -8.024  0.00  0.00    +0.000 A 
ATOM      5  C   UNL     1     -16.874   1.973  -7.637  0.00  0.00    +0.000 A 
ATOM      6  C   UNL     1     -17.303   1.278  -6.503  0.00  0.00    +0.008 A 
ATOM      7  C   UNL     1     -16.432   0.499  -5.688  0.00  0.00    +0.004 A 
ATOM      8  C   UNL     1     -17.054  -0.260  -4.482  0.00  0.00    +0.168 C 
ATOM      9  C   UNL     1     -18.031   0.650  -3.686  0.00  0.00    +0.099 C 
ATOM     10  C   UNL     1     -19.370   0.164  -4.106  0.00  0.00    +0.034 C 
ATOM     11  C   UNL     1     -20.564   0.696  -3.819  0.00  0.00    +0.019 C 
ATOM     12  C   UNL     1     -19.212  -1.033  -4.951  0.00  0.00    +0.336 C 
ATOM     13  O   UNL     1     -20.116  -1.709  -5.409  0.00  0.00    -0.245 OA
ATOM     14  O   UNL     1     -17.888  -1.270  -5.119  0.00  0.00    -0.445 OA
ATOM     15  C   UNL     1     -16.209  -1.022  -3.424  0.00  0.00    +0.004 A 
ATOM     16  C   UNL     1     -16.877  -1.993  -2.625  0.00  0.00    +0.008 A 
ATOM     17  C   UNL     1     -16.268  -2.636  -1.546  0.00  0.00    +0.000 A 
ATOM     18  C   UNL     1     -14.958  -2.334  -1.221  0.00  0.00    +0.000 A 
ATOM     19  C   UNL     1     -14.263  -1.410  -1.991  0.00  0.00    +0.004 A 
ATOM     20  C   UNL     1     -14.866  -0.762  -3.094  0.00  0.00    -0.040 A 
ATOM     21  C   UNL     1     -13.987   0.141  -3.909  0.00  0.00    +0.040 C 
ENDROOT
TORSDOF 0
ENDMDL
MODEL 9
REMARK VINA RESULT:      -7.2      8.478     11.992
REMARK  Name = min_compound982.pdb
REMARK  0 active torsions:
REMARK  status: ('A' for Active; 'I' for Inactive)
REMARK                            x       y       z     vdW  Elec       q    Type
REMARK                         _______ _______ _______ _____ _____    ______ ____
ROOT
ATOM      1  C   UNL     1     -14.938  -0.063  -7.134  0.00  0.00    +0.040 C 
ATOM      2  C   UNL     1     -15.094  -0.063  -5.639  0.00  0.00    -0.040 A 
ATOM      3  C   UNL     1     -14.424  -1.098  -4.942  0.00  0.00    +0.004 A 
ATOM      4  C   UNL     1     -14.524  -1.236  -3.565  0.00  0.00    +0.000 A 
ATOM      5  C   UNL     1     -15.284  -0.330  -2.853  0.00  0.00    +0.000 A 
ATOM      6  C   UNL     1     -15.932   0.709  -3.527  0.00  0.00    +0.008 A 
ATOM      7  C   UNL     1     -15.876   0.879  -4.940  0.00  0.00    +0.004 A 
ATOM      8  C   UNL     1     -16.607   2.106  -5.553  0.00  0.00    +0.168 C 
ATOM      9  C   UNL     1     -18.027   2.279  -4.944  0.00  0.00    +0.099 C 
ATOM     10  C   UNL     1     -17.860   3.414  -4.002  0.00  0.00    +0.034 C 
ATOM     11  C   UNL     1     -18.747   3.885  -3.117  0.00  0.00    +0.019 C 
ATOM     12  C   UNL     1     -16.505   3.977  -4.150  0.00  0.00    +0.336 C 
ATOM     13  O   UNL     1     -16.069   4.953  -3.567  0.00  0.00    -0.245 OA
ATOM     14  O   UNL     1     -15.829   3.236  -5.061  0.00  0.00    -0.445 OA
ATOM     15  C   UNL     1     -16.758   2.336  -7.082  0.00  0.00    +0.004 A 
ATOM     16  C   UNL     1     -17.071   3.654  -7.520  0.00  0.00    +0.008 A 
ATOM     17  C   UNL     1     -17.377   3.959  -8.848  0.00  0.00    +0.000 A 
ATOM     18  C   UNL     1     -17.380   2.953  -9.797  0.00  0.00    +0.000 A 
ATOM     19  C   UNL     1     -17.056   1.657  -9.415  0.00  0.00    +0.004 A 
ATOM     20  C   UNL     1     -16.732   1.339  -8.075  0.00  0.00    -0.040 A 
ATOM     21  C   UNL     1     -16.302  -0.073  -7.801  0.00  0.00    +0.040 C 
ENDROOT
TORSDOF 0
ENDMDL
