MODEL 1
REMARK VINA RESULT:      -7.9      0.000      0.000
REMARK  Name = min_compound933.pdb
REMARK  6 active torsions:
REMARK  status: ('A' for Active; 'I' for Inactive)
REMARK    1  A    between atoms: _2  and  _18
REMARK    2  A    between atoms: _11  and  _12
REMARK    3  A    between atoms: _17  and  _19
REMARK    4  A    between atoms: _19  and  _20
REMARK    5  A    between atoms: _19  and  _21
REMARK    6  A    between atoms: _19  and  _22
REMARK                            x       y       z     vdW  Elec       q    Type
REMARK                         _______ _______ _______ _____ _____    ______ ____
ROOT
ATOM      1  C   UNL     1     -17.227   8.708 -16.197  0.00  0.00    +0.093 A 
ATOM      2  C   UNL     1     -16.409   9.491 -16.943  0.00  0.00    +0.020 A 
ATOM      3  C   UNL     1     -16.673  10.903 -17.379  0.00  0.00    +0.063 C 
ATOM      4  N   UNL     1     -15.154   8.884 -17.329  0.00  0.00    -0.343 N 
ATOM      5  H   UNL     1     -14.544   9.483 -17.885  0.00  0.00    +0.167 HD
ATOM      6  C   UNL     1     -14.760   7.589 -17.002  0.00  0.00    +0.138 A 
ATOM      7  C   UNL     1     -13.656   6.761 -17.229  0.00  0.00    +0.076 A 
ATOM      8  C   UNL     1     -13.896   5.476 -16.570  0.00  0.00    +0.095 A 
ATOM      9  N   UNL     1     -15.112   5.552 -15.973  0.00  0.00    -0.162 NA
ATOM     10  N   UNL     1     -15.613   6.819 -16.244  0.00  0.00    -0.180 N 
ATOM     11  C   UNL     1     -16.870   7.291 -15.794  0.00  0.00    +0.275 A 
ATOM     12  O   UNL     1     -17.619   6.591 -15.121  0.00  0.00    -0.266 OA
ENDROOT
BRANCH   8  13
ATOM     13  C   UNL     1     -13.011   4.200 -16.477  0.00  0.00    +0.002 A 
ATOM     14  C   UNL     1     -11.622   4.182 -16.288  0.00  0.00    +0.010 A 
ATOM     15  C   UNL     1     -10.825   2.940 -16.175  0.00  0.00    +0.005 A 
ATOM     16  C   UNL     1     -11.315   1.583 -16.155  0.00  0.00    -0.042 A 
ATOM     17  C   UNL     1     -12.705   1.667 -16.492  0.00  0.00    +0.005 A 
ATOM     18  C   UNL     1     -13.516   2.896 -16.611  0.00  0.00    +0.010 A 
BRANCH  16  19
ATOM     19  C   UNL     1     -10.412   0.393 -16.026  0.00  0.00    -0.013 C 
ATOM     20  C   UNL     1      -9.509  -0.797 -15.897  0.00  0.00    +0.015 C 
ATOM     21  C   UNL     1      -9.618   0.746 -17.472  0.00  0.00    +0.015 C 
ATOM     22  C   UNL     1     -11.640  -0.634 -16.565  0.00  0.00    +0.015 C 
ENDBRANCH  16  19
ENDBRANCH   8  13
TORSDOF 2
ENDMDL
MODEL 2
REMARK VINA RESULT:      -7.2      1.432      1.946
REMARK  Name = min_compound933.pdb
REMARK  6 active torsions:
REMARK  status: ('A' for Active; 'I' for Inactive)
REMARK    1  A    between atoms: _2  and  _18
REMARK    2  A    between atoms: _11  and  _12
REMARK    3  A    between atoms: _17  and  _19
REMARK    4  A    between atoms: _19  and  _20
REMARK    5  A    between atoms: _19  and  _21
REMARK    6  A    between atoms: _19  and  _22
REMARK                            x       y       z     vdW  Elec       q    Type
REMARK                         _______ _______ _______ _____ _____    ______ ____
ROOT
ATOM      1  C   UNL     1     -16.967   8.856 -16.482  0.00  0.00    +0.093 A 
ATOM      2  C   UNL     1     -17.869   8.290 -15.642  0.00  0.00    +0.020 A 
ATOM      3  C   UNL     1     -19.164   8.893 -15.180  0.00  0.00    +0.063 C 
ATOM      4  N   UNL     1     -17.531   6.965 -15.173  0.00  0.00    -0.343 N 
ATOM      5  H   UNL     1     -18.218   6.546 -14.546  0.00  0.00    +0.167 HD
ATOM      6  C   UNL     1     -16.372   6.270 -15.511  0.00  0.00    +0.138 A 
ATOM      7  C   UNL     1     -15.795   5.030 -15.221  0.00  0.00    +0.076 A 
ATOM      8  C   UNL     1     -14.524   4.929 -15.942  0.00  0.00    +0.095 A 
ATOM      9  N   UNL     1     -14.365   6.084 -16.637  0.00  0.00    -0.162 NA
ATOM     10  N   UNL     1     -15.476   6.872 -16.365  0.00  0.00    -0.180 N 
ATOM     11  C   UNL     1     -15.685   8.165 -16.903  0.00  0.00    +0.275 A 
ATOM     12  O   UNL     1     -14.876   8.688 -17.660  0.00  0.00    -0.266 OA
ENDROOT
BRANCH   8  13
ATOM     13  C   UNL     1     -13.480   3.778 -16.006  0.00  0.00    +0.002 A 
ATOM     14  C   UNL     1     -12.160   3.847 -15.539  0.00  0.00    +0.010 A 
ATOM     15  C   UNL     1     -11.210   2.713 -15.593  0.00  0.00    +0.005 A 
ATOM     16  C   UNL     1     -11.477   1.368 -16.038  0.00  0.00    -0.042 A 
ATOM     17  C   UNL     1     -12.782   1.405 -16.627  0.00  0.00    +0.005 A 
ATOM     18  C   UNL     1     -13.743   2.526 -16.584  0.00  0.00    +0.010 A 
BRANCH  16  19
ATOM     19  C   UNL     1     -10.434   0.289 -16.041  0.00  0.00    -0.013 C 
ATOM     20  C   UNL     1      -9.391  -0.789 -16.044  0.00  0.00    +0.015 C 
ATOM     21  C   UNL     1      -9.904   0.704 -17.588  0.00  0.00    +0.015 C 
ATOM     22  C   UNL     1     -11.602  -0.879 -16.394  0.00  0.00    +0.015 C 
ENDBRANCH  16  19
ENDBRANCH   8  13
TORSDOF 2
ENDMDL
MODEL 3
REMARK VINA RESULT:      -7.2      2.436      2.754
REMARK  Name = min_compound933.pdb
REMARK  6 active torsions:
REMARK  status: ('A' for Active; 'I' for Inactive)
REMARK    1  A    between atoms: _2  and  _18
REMARK    2  A    between atoms: _11  and  _12
REMARK    3  A    between atoms: _17  and  _19
REMARK    4  A    between atoms: _19  and  _20
REMARK    5  A    between atoms: _19  and  _21
REMARK    6  A    between atoms: _19  and  _22
REMARK                            x       y       z     vdW  Elec       q    Type
REMARK                         _______ _______ _______ _____ _____    ______ ____
ROOT
ATOM      1  C   UNL     1     -17.628   6.778 -12.533  0.00  0.00    +0.093 A 
ATOM      2  C   UNL     1     -18.069   7.271 -13.717  0.00  0.00    +0.020 A 
ATOM      3  C   UNL     1     -19.184   8.256 -13.918  0.00  0.00    +0.063 C 
ATOM      4  N   UNL     1     -17.365   6.793 -14.886  0.00  0.00    -0.343 N 
ATOM      5  H   UNL     1     -17.700   7.173 -15.771  0.00  0.00    +0.167 HD
ATOM      6  C   UNL     1     -16.310   5.883 -14.867  0.00  0.00    +0.138 A 
ATOM      7  C   UNL     1     -15.473   5.258 -15.797  0.00  0.00    +0.076 A 
ATOM      8  C   UNL     1     -14.540   4.393 -15.073  0.00  0.00    +0.095 A 
ATOM      9  N   UNL     1     -14.826   4.510 -13.752  0.00  0.00    -0.162 NA
ATOM     10  N   UNL     1     -15.886   5.401 -13.649  0.00  0.00    -0.180 N 
ATOM     11  C   UNL     1     -16.484   5.789 -12.425  0.00  0.00    +0.275 A 
ATOM     12  O   UNL     1     -16.096   5.349 -11.349  0.00  0.00    -0.266 OA
ENDROOT
BRANCH   8  13
ATOM     13  C   UNL     1     -13.389   3.483 -15.589  0.00  0.00    +0.002 A 
ATOM     14  C   UNL     1     -12.021   3.780 -15.523  0.00  0.00    +0.010 A 
ATOM     15  C   UNL     1     -10.958   2.867 -16.002  0.00  0.00    +0.005 A 
ATOM     16  C   UNL     1     -11.119   1.532 -16.523  0.00  0.00    -0.042 A 
ATOM     17  C   UNL     1     -12.529   1.350 -16.694  0.00  0.00    +0.005 A 
ATOM     18  C   UNL     1     -13.604   2.249 -16.226  0.00  0.00    +0.010 A 
BRANCH  16  19
ATOM     19  C   UNL     1      -9.963   0.688 -16.972  0.00  0.00    -0.013 C 
ATOM     20  C   UNL     1      -8.808  -0.156 -17.421  0.00  0.00    +0.015 C 
ATOM     21  C   UNL     1     -10.964  -0.342 -17.857  0.00  0.00    +0.015 C 
ATOM     22  C   UNL     1      -9.920  -0.098 -15.478  0.00  0.00    +0.015 C 
ENDBRANCH  16  19
ENDBRANCH   8  13
TORSDOF 2
ENDMDL
MODEL 4
REMARK VINA RESULT:      -7.1      2.035      2.917
REMARK  Name = min_compound933.pdb
REMARK  6 active torsions:
REMARK  status: ('A' for Active; 'I' for Inactive)
REMARK    1  A    between atoms: _2  and  _18
REMARK    2  A    between atoms: _11  and  _12
REMARK    3  A    between atoms: _17  and  _19
REMARK    4  A    between atoms: _19  and  _20
REMARK    5  A    between atoms: _19  and  _21
REMARK    6  A    between atoms: _19  and  _22
REMARK                            x       y       z     vdW  Elec       q    Type
REMARK                         _______ _______ _______ _____ _____    ______ ____
ROOT
ATOM      1  C   UNL     1     -17.694   7.599 -14.510  0.00  0.00    +0.093 A 
ATOM      2  C   UNL     1     -17.946   7.043 -13.299  0.00  0.00    +0.020 A 
ATOM      3  C   UNL     1     -18.904   7.551 -12.262  0.00  0.00    +0.063 C 
ATOM      4  N   UNL     1     -17.215   5.829 -13.013  0.00  0.00    -0.343 N 
ATOM      5  H   UNL     1     -17.415   5.415 -12.102  0.00  0.00    +0.167 HD
ATOM      6  C   UNL     1     -16.295   5.229 -13.870  0.00  0.00    +0.138 A 
ATOM      7  C   UNL     1     -15.464   4.104 -13.864  0.00  0.00    +0.076 A 
ATOM      8  C   UNL     1     -14.737   4.058 -15.134  0.00  0.00    +0.095 A 
ATOM      9  N   UNL     1     -15.134   5.131 -15.863  0.00  0.00    -0.162 NA
ATOM     10  N   UNL     1     -16.060   5.819 -15.092  0.00  0.00    -0.180 N 
ATOM     11  C   UNL     1     -16.712   7.008 -15.502  0.00  0.00    +0.275 A 
ATOM     12  O   UNL     1     -16.491   7.521 -16.593  0.00  0.00    -0.266 OA
ENDROOT
BRANCH   8  13
ATOM     13  C   UNL     1     -13.703   3.029 -15.676  0.00  0.00    +0.002 A 
ATOM     14  C   UNL     1     -12.315   3.216 -15.728  0.00  0.00    +0.010 A 
ATOM     15  C   UNL     1     -11.367   2.194 -16.226  0.00  0.00    +0.005 A 
ATOM     16  C   UNL     1     -11.672   0.850 -16.651  0.00  0.00    -0.042 A 
ATOM     17  C   UNL     1     -13.101   0.775 -16.708  0.00  0.00    +0.005 A 
ATOM     18  C   UNL     1     -14.062   1.784 -16.219  0.00  0.00    +0.010 A 
BRANCH  16  19
ATOM     19  C   UNL     1     -10.623  -0.109 -17.130  0.00  0.00    -0.013 C 
ATOM     20  C   UNL     1      -9.575  -1.069 -17.610  0.00  0.00    +0.015 C 
ATOM     21  C   UNL     1     -10.085  -0.419 -15.562  0.00  0.00    +0.015 C 
ATOM     22  C   UNL     1      -9.616   1.170 -17.579  0.00  0.00    +0.015 C 
ENDBRANCH  16  19
ENDBRANCH   8  13
TORSDOF 2
ENDMDL
MODEL 5
REMARK VINA RESULT:      -6.9      1.758      1.843
REMARK  Name = min_compound933.pdb
REMARK  6 active torsions:
REMARK  status: ('A' for Active; 'I' for Inactive)
REMARK    1  A    between atoms: _2  and  _18
REMARK    2  A    between atoms: _11  and  _12
REMARK    3  A    between atoms: _17  and  _19
REMARK    4  A    between atoms: _19  and  _20
REMARK    5  A    between atoms: _19  and  _21
REMARK    6  A    between atoms: _19  and  _22
REMARK                            x       y       z     vdW  Elec       q    Type
REMARK                         _______ _______ _______ _____ _____    ______ ____
ROOT
ATOM      1  C   UNL     1     -16.483   9.122 -17.968  0.00  0.00    +0.093 A 
ATOM      2  C   UNL     1     -16.945   8.649 -19.152  0.00  0.00    +0.020 A 
ATOM      3  C   UNL     1     -17.896   9.342 -20.084  0.00  0.00    +0.063 C 
ATOM      4  N   UNL     1     -16.441   7.349 -19.537  0.00  0.00    -0.343 N 
ATOM      5  H   UNL     1     -16.790   7.005 -20.431  0.00  0.00    +0.167 HD
ATOM      6  C   UNL     1     -15.553   6.582 -18.786  0.00  0.00    +0.138 A 
ATOM      7  C   UNL     1     -14.921   5.340 -18.895  0.00  0.00    +0.076 A 
ATOM      8  C   UNL     1     -14.080   5.143 -17.712  0.00  0.00    +0.095 A 
ATOM      9  N   UNL     1     -14.219   6.245 -16.933  0.00  0.00    -0.162 NA
ATOM     10  N   UNL     1     -15.104   7.090 -17.588  0.00  0.00    -0.180 N 
ATOM     11  C   UNL     1     -15.513   8.353 -17.094  0.00  0.00    +0.275 A 
ATOM     12  O   UNL     1     -15.104   8.790 -16.024  0.00  0.00    -0.266 OA
ENDROOT
BRANCH   8  13
ATOM     13  C   UNL     1     -13.147   3.963 -17.314  0.00  0.00    +0.002 A 
ATOM     14  C   UNL     1     -12.450   3.847 -16.103  0.00  0.00    +0.010 A 
ATOM     15  C   UNL     1     -11.596   2.688 -15.756  0.00  0.00    +0.005 A 
ATOM     16  C   UNL     1     -11.398   1.484 -16.526  0.00  0.00    -0.042 A 
ATOM     17  C   UNL     1     -12.015   1.728 -17.795  0.00  0.00    +0.005 A 
ATOM     18  C   UNL     1     -12.868   2.878 -18.160  0.00  0.00    +0.010 A 
BRANCH  16  19
ATOM     19  C   UNL     1     -10.512   0.363 -16.070  0.00  0.00    -0.013 C 
ATOM     20  C   UNL     1      -9.626  -0.758 -15.614  0.00  0.00    +0.015 C 
ATOM     21  C   UNL     1      -9.558   0.454 -17.458  0.00  0.00    +0.015 C 
ATOM     22  C   UNL     1     -11.666  -0.777 -16.536  0.00  0.00    +0.015 C 
ENDBRANCH  16  19
ENDBRANCH   8  13
TORSDOF 2
ENDMDL
MODEL 6
REMARK VINA RESULT:      -6.9      9.198      9.839
REMARK  Name = min_compound933.pdb
REMARK  6 active torsions:
REMARK  status: ('A' for Active; 'I' for Inactive)
REMARK    1  A    between atoms: _2  and  _18
REMARK    2  A    between atoms: _11  and  _12
REMARK    3  A    between atoms: _17  and  _19
REMARK    4  A    between atoms: _19  and  _20
REMARK    5  A    between atoms: _19  and  _21
REMARK    6  A    between atoms: _19  and  _22
REMARK                            x       y       z     vdW  Elec       q    Type
REMARK                         _______ _______ _______ _____ _____    ______ ____
ROOT
ATOM      1  C   UNL     1     -17.779   6.559 -11.706  0.00  0.00    +0.093 A 
ATOM      2  C   UNL     1     -17.980   5.563 -12.605  0.00  0.00    +0.020 A 
ATOM      3  C   UNL     1     -18.425   5.720 -14.030  0.00  0.00    +0.063 C 
ATOM      4  N   UNL     1     -17.715   4.227 -12.119  0.00  0.00    -0.343 N 
ATOM      5  H   UNL     1     -17.863   3.487 -12.803  0.00  0.00    +0.167 HD
ATOM      6  C   UNL     1     -17.294   3.917 -10.827  0.00  0.00    +0.138 A 
ATOM      7  C   UNL     1     -16.977   2.767 -10.097  0.00  0.00    +0.076 A 
ATOM      8  C   UNL     1     -16.586   3.170  -8.745  0.00  0.00    +0.095 A 
ATOM      9  N   UNL     1     -16.673   4.522  -8.688  0.00  0.00    -0.162 NA
ATOM     10  N   UNL     1     -17.100   4.950  -9.938  0.00  0.00    -0.180 N 
ATOM     11  C   UNL     1     -17.318   6.306 -10.284  0.00  0.00    +0.275 A 
ATOM     12  O   UNL     1     -17.143   7.214  -9.480  0.00  0.00    -0.266 OA
ENDROOT
BRANCH   8  13
ATOM     13  C   UNL     1     -16.121   2.322  -7.526  0.00  0.00    +0.002 A 
ATOM     14  C   UNL     1     -16.725   2.309  -6.262  0.00  0.00    +0.010 A 
ATOM     15  C   UNL     1     -16.264   1.460  -5.140  0.00  0.00    +0.005 A 
ATOM     16  C   UNL     1     -15.210   0.475  -5.163  0.00  0.00    -0.042 A 
ATOM     17  C   UNL     1     -14.551   0.640  -6.423  0.00  0.00    +0.005 A 
ATOM     18  C   UNL     1     -14.994   1.483  -7.553  0.00  0.00    +0.010 A 
BRANCH  16  19
ATOM     19  C   UNL     1     -14.832  -0.340  -3.961  0.00  0.00    -0.013 C 
ATOM     20  C   UNL     1     -14.453  -1.154  -2.760  0.00  0.00    +0.015 C 
ATOM     21  C   UNL     1     -16.281   0.013  -3.174  0.00  0.00    +0.015 C 
ATOM     22  C   UNL     1     -13.838   0.903  -3.396  0.00  0.00    +0.015 C 
ENDBRANCH  16  19
ENDBRANCH   8  13
TORSDOF 2
ENDMDL
MODEL 7
REMARK VINA RESULT:      -6.8     10.538     12.878
REMARK  Name = min_compound933.pdb
REMARK  6 active torsions:
REMARK  status: ('A' for Active; 'I' for Inactive)
REMARK    1  A    between atoms: _2  and  _18
REMARK    2  A    between atoms: _11  and  _12
REMARK    3  A    between atoms: _17  and  _19
REMARK    4  A    between atoms: _19  and  _20
REMARK    5  A    between atoms: _19  and  _21
REMARK    6  A    between atoms: _19  and  _22
REMARK                            x       y       z     vdW  Elec       q    Type
REMARK                         _______ _______ _______ _____ _____    ______ ____
ROOT
ATOM      1  C   UNL     1     -14.218  -0.708  -2.703  0.00  0.00    +0.093 A 
ATOM      2  C   UNL     1     -14.861  -1.870  -2.978  0.00  0.00    +0.020 A 
ATOM      3  C   UNL     1     -14.835  -3.124  -2.153  0.00  0.00    +0.063 C 
ATOM      4  N   UNL     1     -15.658  -1.867  -4.185  0.00  0.00    -0.343 N 
ATOM      5  H   UNL     1     -16.141  -2.743  -4.379  0.00  0.00    +0.167 HD
ATOM      6  C   UNL     1     -15.788  -0.785  -5.053  0.00  0.00    +0.138 A 
ATOM      7  C   UNL     1     -16.454  -0.499  -6.248  0.00  0.00    +0.076 A 
ATOM      8  C   UNL     1     -16.154   0.883  -6.628  0.00  0.00    +0.095 A 
ATOM      9  N   UNL     1     -15.332   1.391  -5.676  0.00  0.00    -0.162 NA
ATOM     10  N   UNL     1     -15.122   0.381  -4.747  0.00  0.00    -0.180 N 
ATOM     11  C   UNL     1     -14.311   0.516  -3.593  0.00  0.00    +0.275 A 
ATOM     12  O   UNL     1     -13.723   1.560  -3.336  0.00  0.00    -0.266 OA
ENDROOT
BRANCH   8  13
ATOM     13  C   UNL     1     -16.633   1.730  -7.842  0.00  0.00    +0.002 A 
ATOM     14  C   UNL     1     -17.949   1.807  -8.315  0.00  0.00    +0.010 A 
ATOM     15  C   UNL     1     -18.363   2.653  -9.458  0.00  0.00    +0.005 A 
ATOM     16  C   UNL     1     -17.543   3.573 -10.208  0.00  0.00    -0.042 A 
ATOM     17  C   UNL     1     -16.199   3.340  -9.772  0.00  0.00    +0.005 A 
ATOM     18  C   UNL     1     -15.767   2.500  -8.637  0.00  0.00    +0.010 A 
BRANCH  16  19
ATOM     19  C   UNL     1     -18.073   4.391 -11.348  0.00  0.00    -0.013 C 
ATOM     20  C   UNL     1     -18.602   5.209 -12.488  0.00  0.00    +0.015 C 
ATOM     21  C   UNL     1     -19.661   3.901 -11.059  0.00  0.00    +0.015 C 
ATOM     22  C   UNL     1     -17.564   3.225 -12.459  0.00  0.00    +0.015 C 
ENDBRANCH  16  19
ENDBRANCH   8  13
TORSDOF 2
ENDMDL
MODEL 8
REMARK VINA RESULT:      -6.7      9.057      9.681
REMARK  Name = min_compound933.pdb
REMARK  6 active torsions:
REMARK  status: ('A' for Active; 'I' for Inactive)
REMARK    1  A    between atoms: _2  and  _18
REMARK    2  A    between atoms: _11  and  _12
REMARK    3  A    between atoms: _17  and  _19
REMARK    4  A    between atoms: _19  and  _20
REMARK    5  A    between atoms: _19  and  _21
REMARK    6  A    between atoms: _19  and  _22
REMARK                            x       y       z     vdW  Elec       q    Type
REMARK                         _______ _______ _______ _____ _____    ______ ____
ROOT
ATOM      1  C   UNL     1     -18.928   4.640 -12.695  0.00  0.00    +0.093 A 
ATOM      2  C   UNL     1     -17.736   5.118 -13.131  0.00  0.00    +0.020 A 
ATOM      3  C   UNL     1     -17.496   5.934 -14.368  0.00  0.00    +0.063 C 
ATOM      4  N   UNL     1     -16.600   4.808 -12.290  0.00  0.00    -0.343 N 
ATOM      5  H   UNL     1     -15.710   5.177 -12.624  0.00  0.00    +0.167 HD
ATOM      6  C   UNL     1     -16.657   4.066 -11.112  0.00  0.00    +0.138 A 
ATOM      7  C   UNL     1     -15.764   3.619 -10.134  0.00  0.00    +0.076 A 
ATOM      8  C   UNL     1     -16.517   2.869  -9.127  0.00  0.00    +0.095 A 
ATOM      9  N   UNL     1     -17.819   2.878  -9.509  0.00  0.00    -0.162 NA
ATOM     10  N   UNL     1     -17.882   3.594 -10.697  0.00  0.00    -0.180 N 
ATOM     11  C   UNL     1     -19.076   3.829 -11.422  0.00  0.00    +0.275 A 
ATOM     12  O   UNL     1     -20.159   3.400 -11.040  0.00  0.00    -0.266 OA
ENDROOT
BRANCH   8  13
ATOM     13  C   UNL     1     -16.047   2.168  -7.820  0.00  0.00    +0.002 A 
ATOM     14  C   UNL     1     -16.716   2.201  -6.589  0.00  0.00    +0.010 A 
ATOM     15  C   UNL     1     -16.244   1.491  -5.379  0.00  0.00    +0.005 A 
ATOM     16  C   UNL     1     -15.109   0.609  -5.268  0.00  0.00    -0.042 A 
ATOM     17  C   UNL     1     -14.398   0.732  -6.505  0.00  0.00    +0.005 A 
ATOM     18  C   UNL     1     -14.851   1.436  -7.722  0.00  0.00    +0.010 A 
BRANCH  16  19
ATOM     19  C   UNL     1     -14.727  -0.069  -3.985  0.00  0.00    -0.013 C 
ATOM     20  C   UNL     1     -14.345  -0.746  -2.702  0.00  0.00    +0.015 C 
ATOM     21  C   UNL     1     -16.223   0.260  -3.280  0.00  0.00    +0.015 C 
ATOM     22  C   UNL     1     -13.832   1.281  -3.505  0.00  0.00    +0.015 C 
ENDBRANCH  16  19
ENDBRANCH   8  13
TORSDOF 2
ENDMDL
MODEL 9
REMARK VINA RESULT:      -6.7      7.695      9.068
REMARK  Name = min_compound933.pdb
REMARK  6 active torsions:
REMARK  status: ('A' for Active; 'I' for Inactive)
REMARK    1  A    between atoms: _2  and  _18
REMARK    2  A    between atoms: _11  and  _12
REMARK    3  A    between atoms: _17  and  _19
REMARK    4  A    between atoms: _19  and  _20
REMARK    5  A    between atoms: _19  and  _21
REMARK    6  A    between atoms: _19  and  _22
REMARK                            x       y       z     vdW  Elec       q    Type
REMARK                         _______ _______ _______ _____ _____    ______ ____
ROOT
ATOM      1  C   UNL     1     -17.957   4.793  -4.983  0.00  0.00    +0.093 A 
ATOM      2  C   UNL     1     -17.760   3.475  -4.730  0.00  0.00    +0.020 A 
ATOM      3  C   UNL     1     -17.938   2.779  -3.412  0.00  0.00    +0.063 C 
ATOM      4  N   UNL     1     -17.352   2.681  -5.868  0.00  0.00    -0.343 N 
ATOM      5  H   UNL     1     -17.212   1.691  -5.669  0.00  0.00    +0.167 HD
ATOM      6  C   UNL     1     -17.147   3.175  -7.155  0.00  0.00    +0.138 A 
ATOM      7  C   UNL     1     -16.762   2.672  -8.401  0.00  0.00    +0.076 A 
ATOM      8  C   UNL     1     -16.756   3.774  -9.365  0.00  0.00    +0.095 A 
ATOM      9  N   UNL     1     -17.128   4.894  -8.696  0.00  0.00    -0.162 NA
ATOM     10  N   UNL     1     -17.354   4.518  -7.378  0.00  0.00    -0.180 N 
ATOM     11  C   UNL     1     -17.760   5.408  -6.354  0.00  0.00    +0.275 A 
ATOM     12  O   UNL     1     -17.938   6.602  -6.570  0.00  0.00    -0.266 OA
ENDROOT
BRANCH   8  13
ATOM     13  C   UNL     1     -16.429   3.793 -10.886  0.00  0.00    +0.002 A 
ATOM     14  C   UNL     1     -15.407   4.536 -11.492  0.00  0.00    +0.010 A 
ATOM     15  C   UNL     1     -15.114   4.498 -12.943  0.00  0.00    +0.005 A 
ATOM     16  C   UNL     1     -15.740   3.666 -13.941  0.00  0.00    -0.042 A 
ATOM     17  C   UNL     1     -16.854   3.047 -13.288  0.00  0.00    +0.005 A 
ATOM     18  C   UNL     1     -17.164   3.075 -11.844  0.00  0.00    +0.010 A 
BRANCH  16  19
ATOM     19  C   UNL     1     -15.354   3.704 -15.390  0.00  0.00    -0.013 C 
ATOM     20  C   UNL     1     -14.968   3.741 -16.839  0.00  0.00    +0.015 C 
ATOM     21  C   UNL     1     -15.530   2.034 -15.556  0.00  0.00    +0.015 C 
ATOM     22  C   UNL     1     -13.720   3.824 -14.981  0.00  0.00    +0.015 C 
ENDBRANCH  16  19
ENDBRANCH   8  13
TORSDOF 2
ENDMDL
