MODEL 1
REMARK VINA RESULT:      -7.2      0.000      0.000
REMARK  Name = min_compound963.pdb
REMARK  3 active torsions:
REMARK  status: ('A' for Active; 'I' for Inactive)
REMARK    1  A    between atoms: _7  and  _9
REMARK    2  A    between atoms: _11  and  _18
REMARK    3  A    between atoms: _15  and  _16
REMARK                            x       y       z     vdW  Elec       q    Type
REMARK                         _______ _______ _______ _____ _____    ______ ____
ROOT
ATOM      1  C   UNL     1     -14.938   0.996  -6.554  0.00  0.00    +0.250 C 
ATOM      2  N   UNL     1     -16.224   1.422  -6.813  0.00  0.00    -0.281 N 
ATOM      3  H   UNL     1     -16.923   1.231  -6.106  0.00  0.00    +0.155 HD
ATOM      4  O   UNL     1     -13.985   1.154  -7.313  0.00  0.00    -0.270 OA
ENDROOT
BRANCH   1  10
ATOM      5 CL   UNL     1     -14.047  -2.272  -1.545  0.00  0.00    -0.083 Cl
ATOM      6  C   UNL     1     -14.288  -1.310  -2.950  0.00  0.00    +0.042 A 
ATOM      7  C   UNL     1     -14.022   0.056  -2.909  0.00  0.00    +0.040 A 
ATOM      8  C   UNL     1     -14.215   0.854  -4.048  0.00  0.00    +0.054 A 
ATOM      9 CL   UNL     1     -13.840   2.531  -3.836  0.00  0.00    -0.083 Cl
ATOM     10  C   UNL     1     -14.679   0.286  -5.249  0.00  0.00    +0.055 A 
ATOM     11  C   UNL     1     -14.939  -1.104  -5.256  0.00  0.00    +0.016 A 
ATOM     12  C   UNL     1     -14.746  -1.896  -4.120  0.00  0.00    +0.021 A 
ENDBRANCH   1  10
BRANCH   2  13
ATOM     13  C   UNL     1     -16.704   2.102  -7.954  0.00  0.00    +0.035 A 
ATOM     14  C   UNL     1     -18.082   2.021  -8.206  0.00  0.00    +0.023 A 
ATOM     15  C   UNL     1     -18.647   2.661  -9.311  0.00  0.00    +0.003 A 
ATOM     16  C   UNL     1     -17.840   3.391 -10.179  0.00  0.00    +0.017 A 
ATOM     17  C   UNL     1     -16.467   3.479  -9.939  0.00  0.00    +0.026 A 
ATOM     18  C   UNL     1     -15.903   2.837  -8.831  0.00  0.00    +0.040 A 
BRANCH  17  19
ATOM     19  C   UNL     1     -15.637   4.230 -10.832  0.00  0.00    -0.070 C 
ATOM     20  C   UNL     1     -14.941   4.858 -11.582  0.00  0.00    +0.009 C 
ENDBRANCH  17  19
ENDBRANCH   2  13
TORSDOF 3
ENDMDL
MODEL 2
REMARK VINA RESULT:      -7.2      8.045     10.333
REMARK  Name = min_compound963.pdb
REMARK  3 active torsions:
REMARK  status: ('A' for Active; 'I' for Inactive)
REMARK    1  A    between atoms: _7  and  _9
REMARK    2  A    between atoms: _11  and  _18
REMARK    3  A    between atoms: _15  and  _16
REMARK                            x       y       z     vdW  Elec       q    Type
REMARK                         _______ _______ _______ _____ _____    ______ ____
ROOT
ATOM      1  C   UNL     1     -14.853   3.290 -15.376  0.00  0.00    +0.250 C 
ATOM      2  N   UNL     1     -13.550   3.590 -15.035  0.00  0.00    -0.281 N 
ATOM      3  H   UNL     1     -13.408   4.133 -14.193  0.00  0.00    +0.155 HD
ATOM      4  O   UNL     1     -15.183   2.642 -16.365  0.00  0.00    -0.270 OA
ENDROOT
BRANCH   1  10
ATOM      5 CL   UNL     1     -19.342   4.832 -11.630  0.00  0.00    -0.083 Cl
ATOM      6  C   UNL     1     -18.060   4.433 -12.704  0.00  0.00    +0.042 A 
ATOM      7  C   UNL     1     -17.393   5.441 -13.393  0.00  0.00    +0.040 A 
ATOM      8  C   UNL     1     -16.344   5.129 -14.273  0.00  0.00    +0.054 A 
ATOM      9 CL   UNL     1     -15.616   6.494 -15.053  0.00  0.00    -0.083 Cl
ATOM     10  C   UNL     1     -15.951   3.793 -14.473  0.00  0.00    +0.055 A 
ATOM     11  C   UNL     1     -16.650   2.794 -13.758  0.00  0.00    +0.016 A 
ATOM     12  C   UNL     1     -17.693   3.107 -12.882  0.00  0.00    +0.021 A 
ENDBRANCH   1  10
BRANCH   2  13
ATOM     13  C   UNL     1     -12.366   3.232 -15.718  0.00  0.00    +0.035 A 
ATOM     14  C   UNL     1     -11.761   4.228 -16.499  0.00  0.00    +0.023 A 
ATOM     15  C   UNL     1     -10.588   3.968 -17.211  0.00  0.00    +0.003 A 
ATOM     16  C   UNL     1     -10.005   2.705 -17.149  0.00  0.00    +0.017 A 
ATOM     17  C   UNL     1     -10.597   1.705 -16.376  0.00  0.00    +0.026 A 
ATOM     18  C   UNL     1     -11.774   1.969 -15.663  0.00  0.00    +0.040 A 
BRANCH  17  19
ATOM     19  C   UNL     1      -9.998   0.406 -16.312  0.00  0.00    -0.070 C 
ATOM     20  C   UNL     1      -9.493  -0.682 -16.258  0.00  0.00    +0.009 C 
ENDBRANCH  17  19
ENDBRANCH   2  13
TORSDOF 3
ENDMDL
MODEL 3
REMARK VINA RESULT:      -7.1      2.281      3.030
REMARK  Name = min_compound963.pdb
REMARK  3 active torsions:
REMARK  status: ('A' for Active; 'I' for Inactive)
REMARK    1  A    between atoms: _7  and  _9
REMARK    2  A    between atoms: _11  and  _18
REMARK    3  A    between atoms: _15  and  _16
REMARK                            x       y       z     vdW  Elec       q    Type
REMARK                         _______ _______ _______ _____ _____    ______ ____
ROOT
ATOM      1  C   UNL     1     -16.734   1.629  -8.058  0.00  0.00    +0.250 C 
ATOM      2  N   UNL     1     -16.643   2.764  -8.837  0.00  0.00    -0.281 N 
ATOM      3  H   UNL     1     -16.041   3.505  -8.502  0.00  0.00    +0.155 HD
ATOM      4  O   UNL     1     -17.422   0.649  -8.331  0.00  0.00    -0.270 OA
ENDROOT
BRANCH   1  10
ATOM      5 CL   UNL     1     -13.191   1.180  -3.179  0.00  0.00    -0.083 Cl
ATOM      6  C   UNL     1     -14.225   1.330  -4.545  0.00  0.00    +0.042 A 
ATOM      7  C   UNL     1     -15.412   2.048  -4.441  0.00  0.00    +0.040 A 
ATOM      8  C   UNL     1     -16.266   2.179  -5.548  0.00  0.00    +0.054 A 
ATOM      9 CL   UNL     1     -17.702   3.101  -5.257  0.00  0.00    -0.083 Cl
ATOM     10  C   UNL     1     -15.934   1.585  -6.780  0.00  0.00    +0.055 A 
ATOM     11  C   UNL     1     -14.722   0.863  -6.851  0.00  0.00    +0.016 A 
ATOM     12  C   UNL     1     -13.874   0.735  -5.747  0.00  0.00    +0.021 A 
ENDBRANCH   1  10
BRANCH   2  13
ATOM     13  C   UNL     1     -17.292   3.034 -10.063  0.00  0.00    +0.035 A 
ATOM     14  C   UNL     1     -18.558   3.635  -9.990  0.00  0.00    +0.023 A 
ATOM     15  C   UNL     1     -19.275   3.939 -11.149  0.00  0.00    +0.003 A 
ATOM     16  C   UNL     1     -18.733   3.645 -12.397  0.00  0.00    +0.017 A 
ATOM     17  C   UNL     1     -17.475   3.047 -12.483  0.00  0.00    +0.026 A 
ATOM     18  C   UNL     1     -16.758   2.743 -11.320  0.00  0.00    +0.040 A 
BRANCH  17  19
ATOM     19  C   UNL     1     -16.918   2.744 -13.767  0.00  0.00    -0.070 C 
ATOM     20  C   UNL     1     -16.453   2.491 -14.845  0.00  0.00    +0.009 C 
ENDBRANCH  17  19
ENDBRANCH   2  13
TORSDOF 3
ENDMDL
MODEL 4
REMARK VINA RESULT:      -7.0      7.813     10.163
REMARK  Name = min_compound963.pdb
REMARK  3 active torsions:
REMARK  status: ('A' for Active; 'I' for Inactive)
REMARK    1  A    between atoms: _7  and  _9
REMARK    2  A    between atoms: _11  and  _18
REMARK    3  A    between atoms: _15  and  _16
REMARK                            x       y       z     vdW  Elec       q    Type
REMARK                         _______ _______ _______ _____ _____    ______ ____
ROOT
ATOM      1  C   UNL     1     -13.260   3.775 -15.822  0.00  0.00    +0.250 C 
ATOM      2  N   UNL     1     -14.025   3.526 -14.701  0.00  0.00    -0.281 N 
ATOM      3  H   UNL     1     -13.898   2.631 -14.247  0.00  0.00    +0.155 HD
ATOM      4  O   UNL     1     -13.302   4.812 -16.479  0.00  0.00    -0.270 OA
ENDROOT
BRANCH   1  10
ATOM      5 CL   UNL     1      -9.819  -0.841 -17.669  0.00  0.00    -0.083 Cl
ATOM      6  C   UNL     1     -10.765   0.495 -17.142  0.00  0.00    +0.042 A 
ATOM      7  C   UNL     1     -10.155   1.720 -16.891  0.00  0.00    +0.040 A 
ATOM      8  C   UNL     1     -10.915   2.820 -16.461  0.00  0.00    +0.054 A 
ATOM      9 CL   UNL     1     -10.009   4.272 -16.192  0.00  0.00    -0.083 Cl
ATOM     10  C   UNL     1     -12.305   2.700 -16.276  0.00  0.00    +0.055 A 
ATOM     11  C   UNL     1     -12.892   1.442 -16.540  0.00  0.00    +0.016 A 
ATOM     12  C   UNL     1     -12.133   0.349 -16.969  0.00  0.00    +0.021 A 
ENDBRANCH   1  10
BRANCH   2  13
ATOM     13  C   UNL     1     -14.979   4.372 -14.092  0.00  0.00    +0.035 A 
ATOM     14  C   UNL     1     -15.806   5.113 -14.949  0.00  0.00    +0.023 A 
ATOM     15  C   UNL     1     -16.778   5.975 -14.439  0.00  0.00    +0.003 A 
ATOM     16  C   UNL     1     -16.935   6.107 -13.061  0.00  0.00    +0.017 A 
ATOM     17  C   UNL     1     -16.118   5.375 -12.198  0.00  0.00    +0.026 A 
ATOM     18  C   UNL     1     -15.144   4.511 -12.712  0.00  0.00    +0.040 A 
BRANCH  17  19
ATOM     19  C   UNL     1     -16.280   5.511 -10.782  0.00  0.00    -0.070 C 
ATOM     20  C   UNL     1     -16.413   5.626  -9.594  0.00  0.00    +0.009 C 
ENDBRANCH  17  19
ENDBRANCH   2  13
TORSDOF 3
ENDMDL
MODEL 5
REMARK VINA RESULT:      -6.9     10.664     11.220
REMARK  Name = min_compound963.pdb
REMARK  3 active torsions:
REMARK  status: ('A' for Active; 'I' for Inactive)
REMARK    1  A    between atoms: _7  and  _9
REMARK    2  A    between atoms: _11  and  _18
REMARK    3  A    between atoms: _15  and  _16
REMARK                            x       y       z     vdW  Elec       q    Type
REMARK                         _______ _______ _______ _____ _____    ______ ____
ROOT
ATOM      1  C   UNL     1     -13.405   3.738 -16.411  0.00  0.00    +0.250 C 
ATOM      2  N   UNL     1     -13.153   4.749 -17.315  0.00  0.00    -0.281 N 
ATOM      3  H   UNL     1     -12.305   4.676 -17.863  0.00  0.00    +0.155 HD
ATOM      4  O   UNL     1     -14.389   3.688 -15.677  0.00  0.00    -0.270 OA
ENDROOT
BRANCH   1  10
ATOM      5 CL   UNL     1      -9.758  -1.078 -16.164  0.00  0.00    -0.083 Cl
ATOM      6  C   UNL     1     -10.764   0.315 -16.223  0.00  0.00    +0.042 A 
ATOM      7  C   UNL     1     -10.241   1.562 -15.897  0.00  0.00    +0.040 A 
ATOM      8  C   UNL     1     -11.052   2.709 -15.941  0.00  0.00    +0.054 A 
ATOM      9 CL   UNL     1     -10.253   4.183 -15.509  0.00  0.00    -0.083 Cl
ATOM     10  C   UNL     1     -12.405   2.613 -16.314  0.00  0.00    +0.055 A 
ATOM     11  C   UNL     1     -12.904   1.331 -16.638  0.00  0.00    +0.016 A 
ATOM     12  C   UNL     1     -12.095   0.192 -16.594  0.00  0.00    +0.021 A 
ENDBRANCH   1  10
BRANCH   2  13
ATOM     13  C   UNL     1     -13.935   5.895 -17.582  0.00  0.00    +0.035 A 
ATOM     14  C   UNL     1     -14.320   6.102 -18.915  0.00  0.00    +0.023 A 
ATOM     15  C   UNL     1     -15.094   7.207 -19.274  0.00  0.00    +0.003 A 
ATOM     16  C   UNL     1     -15.494   8.120 -18.302  0.00  0.00    +0.017 A 
ATOM     17  C   UNL     1     -15.118   7.926 -16.972  0.00  0.00    +0.026 A 
ATOM     18  C   UNL     1     -14.341   6.817 -16.614  0.00  0.00    +0.040 A 
BRANCH  17  19
ATOM     19  C   UNL     1     -15.529   8.865 -15.973  0.00  0.00    -0.070 C 
ATOM     20  C   UNL     1     -15.875   9.653 -15.136  0.00  0.00    +0.009 C 
ENDBRANCH  17  19
ENDBRANCH   2  13
TORSDOF 3
ENDMDL
MODEL 6
REMARK VINA RESULT:      -6.9      8.803     10.021
REMARK  Name = min_compound963.pdb
REMARK  3 active torsions:
REMARK  status: ('A' for Active; 'I' for Inactive)
REMARK    1  A    between atoms: _7  and  _9
REMARK    2  A    between atoms: _11  and  _18
REMARK    3  A    between atoms: _15  and  _16
REMARK                            x       y       z     vdW  Elec       q    Type
REMARK                         _______ _______ _______ _____ _____    ______ ____
ROOT
ATOM      1  C   UNL     1     -13.736   3.303 -15.997  0.00  0.00    +0.250 C 
ATOM      2  N   UNL     1     -14.099   3.661 -14.714  0.00  0.00    -0.281 N 
ATOM      3  H   UNL     1     -13.586   3.232 -13.955  0.00  0.00    +0.155 HD
ATOM      4  O   UNL     1     -14.262   3.737 -17.018  0.00  0.00    -0.270 OA
ENDROOT
BRANCH   1  10
ATOM      5 CL   UNL     1      -9.581  -1.020 -16.775  0.00  0.00    -0.083 Cl
ATOM      6  C   UNL     1     -10.733   0.235 -16.544  0.00  0.00    +0.042 A 
ATOM      7  C   UNL     1     -10.309   1.504 -16.160  0.00  0.00    +0.040 A 
ATOM      8  C   UNL     1     -11.239   2.539 -15.968  0.00  0.00    +0.054 A 
ATOM      9 CL   UNL     1     -10.553   4.056 -15.492  0.00  0.00    -0.083 Cl
ATOM     10  C   UNL     1     -12.613   2.309 -16.160  0.00  0.00    +0.055 A 
ATOM     11  C   UNL     1     -13.010   1.009 -16.550  0.00  0.00    +0.016 A 
ATOM     12  C   UNL     1     -12.082  -0.019 -16.740  0.00  0.00    +0.021 A 
ENDBRANCH   1  10
BRANCH   2  13
ATOM     13  C   UNL     1     -15.109   4.564 -14.315  0.00  0.00    +0.035 A 
ATOM     14  C   UNL     1     -16.173   4.033 -13.571  0.00  0.00    +0.023 A 
ATOM     15  C   UNL     1     -17.218   4.848 -13.132  0.00  0.00    +0.003 A 
ATOM     16  C   UNL     1     -17.211   6.208 -13.433  0.00  0.00    +0.017 A 
ATOM     17  C   UNL     1     -16.158   6.748 -14.172  0.00  0.00    +0.026 A 
ATOM     18  C   UNL     1     -15.111   5.928 -14.611  0.00  0.00    +0.040 A 
BRANCH  17  19
ATOM     19  C   UNL     1     -16.150   8.146 -14.482  0.00  0.00    -0.070 C 
ATOM     20  C   UNL     1     -16.145   9.318 -14.743  0.00  0.00    +0.009 C 
ENDBRANCH  17  19
ENDBRANCH   2  13
TORSDOF 3
ENDMDL
MODEL 7
REMARK VINA RESULT:      -6.7      8.424     12.298
REMARK  Name = min_compound963.pdb
REMARK  3 active torsions:
REMARK  status: ('A' for Active; 'I' for Inactive)
REMARK    1  A    between atoms: _7  and  _9
REMARK    2  A    between atoms: _11  and  _18
REMARK    3  A    between atoms: _15  and  _16
REMARK                            x       y       z     vdW  Elec       q    Type
REMARK                         _______ _______ _______ _____ _____    ______ ____
ROOT
ATOM      1  C   UNL     1     -13.392   4.419 -16.616  0.00  0.00    +0.250 C 
ATOM      2  N   UNL     1     -14.660   4.727 -16.166  0.00  0.00    -0.281 N 
ATOM      3  H   UNL     1     -15.180   5.418 -16.692  0.00  0.00    +0.155 HD
ATOM      4  O   UNL     1     -12.644   3.603 -16.086  0.00  0.00    -0.270 OA
ENDROOT
BRANCH   1  10
ATOM      5 CL   UNL     1     -11.208   7.643 -21.242  0.00  0.00    -0.083 Cl
ATOM      6  C   UNL     1     -11.842   6.698 -19.952  0.00  0.00    +0.042 A 
ATOM      7  C   UNL     1     -12.462   5.482 -20.223  0.00  0.00    +0.040 A 
ATOM      8  C   UNL     1     -12.984   4.700 -19.180  0.00  0.00    +0.054 A 
ATOM      9 CL   UNL     1     -13.723   3.216 -19.681  0.00  0.00    -0.083 Cl
ATOM     10  C   UNL     1     -12.888   5.133 -17.845  0.00  0.00    +0.055 A 
ATOM     11  C   UNL     1     -12.252   6.372 -17.605  0.00  0.00    +0.016 A 
ATOM     12  C   UNL     1     -11.734   7.149 -18.645  0.00  0.00    +0.021 A 
ENDBRANCH   1  10
BRANCH   2  13
ATOM     13  C   UNL     1     -15.341   4.194 -15.049  0.00  0.00    +0.035 A 
ATOM     14  C   UNL     1     -16.108   3.039 -15.267  0.00  0.00    +0.023 A 
ATOM     15  C   UNL     1     -16.816   2.441 -14.223  0.00  0.00    +0.003 A 
ATOM     16  C   UNL     1     -16.766   2.992 -12.945  0.00  0.00    +0.017 A 
ATOM     17  C   UNL     1     -16.007   4.141 -12.716  0.00  0.00    +0.026 A 
ATOM     18  C   UNL     1     -15.298   4.739 -13.764  0.00  0.00    +0.040 A 
BRANCH  17  19
ATOM     19  C   UNL     1     -15.956   4.708 -11.402  0.00  0.00    -0.070 C 
ATOM     20  C   UNL     1     -15.914   5.182 -10.299  0.00  0.00    +0.009 C 
ENDBRANCH  17  19
ENDBRANCH   2  13
TORSDOF 3
ENDMDL
MODEL 8
REMARK VINA RESULT:      -6.6      1.693      2.021
REMARK  Name = min_compound963.pdb
REMARK  3 active torsions:
REMARK  status: ('A' for Active; 'I' for Inactive)
REMARK    1  A    between atoms: _7  and  _9
REMARK    2  A    between atoms: _11  and  _18
REMARK    3  A    between atoms: _15  and  _16
REMARK                            x       y       z     vdW  Elec       q    Type
REMARK                         _______ _______ _______ _____ _____    ______ ____
ROOT
ATOM      1  C   UNL     1     -16.414   1.560  -5.614  0.00  0.00    +0.250 C 
ATOM      2  N   UNL     1     -16.377   1.231  -6.954  0.00  0.00    -0.281 N 
ATOM      3  H   UNL     1     -15.999   0.323  -7.194  0.00  0.00    +0.155 HD
ATOM      4  O   UNL     1     -16.843   2.621  -5.169  0.00  0.00    -0.270 OA
ENDROOT
BRANCH   1  10
ATOM      5 CL   UNL     1     -13.922  -2.197  -1.585  0.00  0.00    -0.083 Cl
ATOM      6  C   UNL     1     -14.662  -1.154  -2.735  0.00  0.00    +0.042 A 
ATOM      7  C   UNL     1     -15.886  -1.500  -3.299  0.00  0.00    +0.040 A 
ATOM      8  C   UNL     1     -16.502  -0.658  -4.239  0.00  0.00    +0.054 A 
ATOM      9 CL   UNL     1     -18.019  -1.230  -4.847  0.00  0.00    -0.083 Cl
ATOM     10  C   UNL     1     -15.891   0.549  -4.625  0.00  0.00    +0.055 A 
ATOM     11  C   UNL     1     -14.649   0.871  -4.032  0.00  0.00    +0.016 A 
ATOM     12  C   UNL     1     -14.038   0.031  -3.097  0.00  0.00    +0.021 A 
ENDBRANCH   1  10
BRANCH   2  13
ATOM     13  C   UNL     1     -16.806   2.006  -8.054  0.00  0.00    +0.035 A 
ATOM     14  C   UNL     1     -18.184   2.024  -8.316  0.00  0.00    +0.023 A 
ATOM     15  C   UNL     1     -18.702   2.762  -9.383  0.00  0.00    +0.003 A 
ATOM     16  C   UNL     1     -17.845   3.493 -10.201  0.00  0.00    +0.017 A 
ATOM     17  C   UNL     1     -16.471   3.484  -9.950  0.00  0.00    +0.026 A 
ATOM     18  C   UNL     1     -15.955   2.743  -8.881  0.00  0.00    +0.040 A 
BRANCH  17  19
ATOM     19  C   UNL     1     -15.590   4.236 -10.792  0.00  0.00    -0.070 C 
ATOM     20  C   UNL     1     -14.850   4.867 -11.496  0.00  0.00    +0.009 C 
ENDBRANCH  17  19
ENDBRANCH   2  13
TORSDOF 3
ENDMDL
MODEL 9
REMARK VINA RESULT:      -6.5      8.220     10.626
REMARK  Name = min_compound963.pdb
REMARK  3 active torsions:
REMARK  status: ('A' for Active; 'I' for Inactive)
REMARK    1  A    between atoms: _7  and  _9
REMARK    2  A    between atoms: _11  and  _18
REMARK    3  A    between atoms: _15  and  _16
REMARK                            x       y       z     vdW  Elec       q    Type
REMARK                         _______ _______ _______ _____ _____    ______ ____
ROOT
ATOM      1  C   UNL     1     -15.037   3.515 -14.812  0.00  0.00    +0.250 C 
ATOM      2  N   UNL     1     -14.389   2.947 -15.891  0.00  0.00    -0.281 N 
ATOM      3  H   UNL     1     -14.969   2.515 -16.600  0.00  0.00    +0.155 HD
ATOM      4  O   UNL     1     -14.472   4.074 -13.876  0.00  0.00    -0.270 OA
ENDROOT
BRANCH   1  10
ATOM      5 CL   UNL     1     -21.068   3.293 -15.172  0.00  0.00    -0.083 Cl
ATOM      6  C   UNL     1     -19.356   3.352 -15.030  0.00  0.00    +0.042 A 
ATOM      7  C   UNL     1     -18.760   3.252 -13.776  0.00  0.00    +0.040 A 
ATOM      8  C   UNL     1     -17.363   3.299 -13.645  0.00  0.00    +0.054 A 
ATOM      9 CL   UNL     1     -16.778   3.161 -12.021  0.00  0.00    -0.083 Cl
ATOM     10  C   UNL     1     -16.543   3.447 -14.779  0.00  0.00    +0.055 A 
ATOM     11  C   UNL     1     -17.180   3.546 -16.036  0.00  0.00    +0.016 A 
ATOM     12  C   UNL     1     -18.571   3.499 -16.164  0.00  0.00    +0.021 A 
ENDBRANCH   1  10
BRANCH   2  13
ATOM     13  C   UNL     1     -13.000   2.887 -16.140  0.00  0.00    +0.035 A 
ATOM     14  C   UNL     1     -12.354   4.101 -16.416  0.00  0.00    +0.023 A 
ATOM     15  C   UNL     1     -10.983   4.141 -16.675  0.00  0.00    +0.003 A 
ATOM     16  C   UNL     1     -10.239   2.963 -16.661  0.00  0.00    +0.017 A 
ATOM     17  C   UNL     1     -10.870   1.749 -16.388  0.00  0.00    +0.026 A 
ATOM     18  C   UNL     1     -12.246   1.712 -16.128  0.00  0.00    +0.040 A 
BRANCH  17  19
ATOM     19  C   UNL     1     -10.106   0.538 -16.373  0.00  0.00    -0.070 C 
ATOM     20  C   UNL     1      -9.466  -0.478 -16.359  0.00  0.00    +0.009 C 
ENDBRANCH  17  19
ENDBRANCH   2  13
TORSDOF 3
ENDMDL
