MODEL 1
REMARK VINA RESULT:      -6.2      0.000      0.000
REMARK  Name = min_compound914.pdb
REMARK  1 active torsions:
REMARK  status: ('A' for Active; 'I' for Inactive)
REMARK    1  A    between atoms: _7  and  _15
REMARK                            x       y       z     vdW  Elec       q    Type
REMARK                         _______ _______ _______ _____ _____    ______ ____
ROOT
ATOM      1  N   UNL     1     -14.560  -1.895  -5.059  0.00  0.00    -0.269 N 
ATOM      2  H   UNL     1     -14.036  -2.653  -5.469  0.00  0.00    +0.156 HD
ATOM      3  C   UNL     1     -14.927  -2.045  -3.724  0.00  0.00    +0.310 C 
ATOM      4  N   UNL     1     -14.468  -3.254  -3.235  0.00  0.00    -0.248 N 
ATOM      5  H   UNL     1     -13.949  -3.886  -3.816  0.00  0.00    +0.158 HD
ATOM      6  C   UNL     1     -14.687  -3.660  -1.948  0.00  0.00    +0.165 A 
ATOM      7  S   UNL     1     -14.017  -5.193  -1.591  0.00  0.00    -0.060 S 
ATOM      8  C   UNL     1     -14.618  -5.062   0.011  0.00  0.00    +0.068 A 
ATOM      9  C   UNL     1     -15.283  -3.862   0.154  0.00  0.00    +0.120 A 
ATOM     10  N   UNL     1     -15.319  -3.064  -0.972  0.00  0.00    -0.233 NA
ATOM     11  O   UNL     1     -15.564  -1.221  -3.084  0.00  0.00    -0.252 OA
ENDROOT
BRANCH   1  15
ATOM     12  C   UNL     1     -15.550   1.300  -7.638  0.00  0.00    +0.020 A 
ATOM     13  C   UNL     1     -16.481   0.324  -7.297  0.00  0.00    +0.043 A 
ATOM     14  C   UNL     1     -16.133  -0.724  -6.442  0.00  0.00    +0.043 A 
ATOM     15  C   UNL     1     -14.836  -0.807  -5.915  0.00  0.00    +0.036 A 
ATOM     16  C   UNL     1     -13.907   0.176  -6.262  0.00  0.00    +0.023 A 
ATOM     17 CL   UNL     1     -18.078   0.407  -7.934  0.00  0.00    -0.083 Cl
ATOM     18  C   UNL     1     -14.261   1.225  -7.118  0.00  0.00    +0.003 A 
ENDBRANCH   1  15
TORSDOF 1
ENDMDL
MODEL 2
REMARK VINA RESULT:      -6.1      2.103      2.604
REMARK  Name = min_compound914.pdb
REMARK  1 active torsions:
REMARK  status: ('A' for Active; 'I' for Inactive)
REMARK    1  A    between atoms: _7  and  _15
REMARK                            x       y       z     vdW  Elec       q    Type
REMARK                         _______ _______ _______ _____ _____    ______ ____
ROOT
ATOM      1  N   UNL     1     -14.895  -2.281  -3.700  0.00  0.00    -0.269 N 
ATOM      2  H   UNL     1     -15.475  -2.742  -4.382  0.00  0.00    +0.156 HD
ATOM      3  C   UNL     1     -14.541  -3.028  -2.579  0.00  0.00    +0.310 C 
ATOM      4  N   UNL     1     -15.087  -4.295  -2.657  0.00  0.00    -0.248 N 
ATOM      5  H   UNL     1     -15.650  -4.571  -3.441  0.00  0.00    +0.158 HD
ATOM      6  C   UNL     1     -14.899  -5.241  -1.688  0.00  0.00    +0.165 A 
ATOM      7  S   UNL     1     -15.678  -6.727  -2.021  0.00  0.00    -0.060 S 
ATOM      8  C   UNL     1     -15.071  -7.355  -0.545  0.00  0.00    +0.068 A 
ATOM      9  C   UNL     1     -14.321  -6.388   0.091  0.00  0.00    +0.120 A 
ATOM     10  N   UNL     1     -14.226  -5.179  -0.570  0.00  0.00    -0.233 NA
ATOM     11  O   UNL     1     -13.846  -2.614  -1.663  0.00  0.00    -0.252 OA
ENDROOT
BRANCH   1  15
ATOM     12  C   UNL     1     -13.850   1.672  -4.759  0.00  0.00    +0.020 A 
ATOM     13  C   UNL     1     -14.140   0.713  -5.723  0.00  0.00    +0.043 A 
ATOM     14  C   UNL     1     -14.484  -0.589  -5.351  0.00  0.00    +0.043 A 
ATOM     15  C   UNL     1     -14.541  -0.947  -3.996  0.00  0.00    +0.036 A 
ATOM     16  C   UNL     1     -14.247   0.022  -3.034  0.00  0.00    +0.023 A 
ATOM     17 CL   UNL     1     -14.075   1.131  -7.392  0.00  0.00    -0.083 Cl
ATOM     18  C   UNL     1     -13.904   1.325  -3.412  0.00  0.00    +0.003 A 
ENDBRANCH   1  15
TORSDOF 1
ENDMDL
MODEL 3
REMARK VINA RESULT:      -6.0      2.340      2.734
REMARK  Name = min_compound914.pdb
REMARK  1 active torsions:
REMARK  status: ('A' for Active; 'I' for Inactive)
REMARK    1  A    between atoms: _7  and  _15
REMARK                            x       y       z     vdW  Elec       q    Type
REMARK                         _______ _______ _______ _____ _____    ______ ____
ROOT
ATOM      1  N   UNL     1     -15.560  -2.203  -3.662  0.00  0.00    -0.269 N 
ATOM      2  H   UNL     1     -16.505  -2.456  -3.902  0.00  0.00    +0.156 HD
ATOM      3  C   UNL     1     -14.970  -2.921  -2.625  0.00  0.00    +0.310 C 
ATOM      4  N   UNL     1     -15.852  -3.866  -2.135  0.00  0.00    -0.248 N 
ATOM      5  H   UNL     1     -16.773  -3.966  -2.520  0.00  0.00    +0.158 HD
ATOM      6  C   UNL     1     -15.532  -4.713  -1.111  0.00  0.00    +0.165 A 
ATOM      7  S   UNL     1     -16.795  -5.788  -0.691  0.00  0.00    -0.060 S 
ATOM      8  C   UNL     1     -15.790  -6.465   0.523  0.00  0.00    +0.068 A 
ATOM      9  C   UNL     1     -14.570  -5.823   0.519  0.00  0.00    +0.120 A 
ATOM     10  N   UNL     1     -14.428  -4.820  -0.420  0.00  0.00    -0.233 NA
ATOM     11  O   UNL     1     -13.834  -2.735  -2.213  0.00  0.00    -0.252 OA
ENDROOT
BRANCH   1  15
ATOM     12  C   UNL     1     -13.858   1.028  -5.784  0.00  0.00    +0.020 A 
ATOM     13  C   UNL     1     -14.103   1.104  -4.417  0.00  0.00    +0.043 A 
ATOM     14  C   UNL     1     -14.666   0.023  -3.734  0.00  0.00    +0.043 A 
ATOM     15  C   UNL     1     -14.994  -1.155  -4.420  0.00  0.00    +0.036 A 
ATOM     16  C   UNL     1     -14.746  -1.223  -5.793  0.00  0.00    +0.023 A 
ATOM     17 CL   UNL     1     -13.708   2.541  -3.556  0.00  0.00    -0.083 Cl
ATOM     18  C   UNL     1     -14.181  -0.138  -6.472  0.00  0.00    +0.003 A 
ENDBRANCH   1  15
TORSDOF 1
ENDMDL
MODEL 4
REMARK VINA RESULT:      -5.9     14.066     15.530
REMARK  Name = min_compound914.pdb
REMARK  1 active torsions:
REMARK  status: ('A' for Active; 'I' for Inactive)
REMARK    1  A    between atoms: _7  and  _15
REMARK                            x       y       z     vdW  Elec       q    Type
REMARK                         _______ _______ _______ _____ _____    ______ ____
ROOT
ATOM      1  N   UNL     1     -12.277   2.492 -18.117  0.00  0.00    -0.269 N 
ATOM      2  H   UNL     1     -12.562   2.358 -19.074  0.00  0.00    +0.156 HD
ATOM      3  C   UNL     1     -12.648   3.694 -17.520  0.00  0.00    +0.310 C 
ATOM      4  N   UNL     1     -13.359   4.472 -18.414  0.00  0.00    -0.248 N 
ATOM      5  H   UNL     1     -13.546   4.153 -19.347  0.00  0.00    +0.158 HD
ATOM      6  C   UNL     1     -13.847   5.708 -18.091  0.00  0.00    +0.165 A 
ATOM      7  S   UNL     1     -14.692   6.466 -19.372  0.00  0.00    -0.060 S 
ATOM      8  C   UNL     1     -14.981   7.817 -18.355  0.00  0.00    +0.068 A 
ATOM      9  C   UNL     1     -14.414   7.591 -17.119  0.00  0.00    +0.120 A 
ATOM     10  N   UNL     1     -13.766   6.380 -16.974  0.00  0.00    -0.233 NA
ATOM     11  O   UNL     1     -12.379   4.008 -16.370  0.00  0.00    -0.252 OA
ENDROOT
BRANCH   1  15
ATOM     12  C   UNL     1     -10.234  -0.750 -16.340  0.00  0.00    +0.020 A 
ATOM     13  C   UNL     1     -11.620  -0.645 -16.284  0.00  0.00    +0.043 A 
ATOM     14  C   UNL     1     -12.276   0.436 -16.879  0.00  0.00    +0.043 A 
ATOM     15  C   UNL     1     -11.544   1.431 -17.542  0.00  0.00    +0.036 A 
ATOM     16  C   UNL     1     -10.152   1.319 -17.593  0.00  0.00    +0.023 A 
ATOM     17 CL   UNL     1     -12.537  -1.856 -15.475  0.00  0.00    -0.083 Cl
ATOM     18  C   UNL     1      -9.500   0.234 -16.996  0.00  0.00    +0.003 A 
ENDBRANCH   1  15
TORSDOF 1
ENDMDL
MODEL 5
REMARK VINA RESULT:      -5.9     14.594     16.793
REMARK  Name = min_compound914.pdb
REMARK  1 active torsions:
REMARK  status: ('A' for Active; 'I' for Inactive)
REMARK    1  A    between atoms: _7  and  _15
REMARK                            x       y       z     vdW  Elec       q    Type
REMARK                         _______ _______ _______ _____ _____    ______ ____
ROOT
ATOM      1  N   UNL     1     -12.536   1.464 -19.266  0.00  0.00    -0.269 N 
ATOM      2  H   UNL     1     -12.195   0.888 -20.020  0.00  0.00    +0.156 HD
ATOM      3  C   UNL     1     -13.635   2.271 -19.550  0.00  0.00    +0.310 C 
ATOM      4  N   UNL     1     -14.033   2.092 -20.862  0.00  0.00    -0.248 N 
ATOM      5  H   UNL     1     -13.553   1.453 -21.468  0.00  0.00    +0.158 HD
ATOM      6  C   UNL     1     -15.092   2.762 -21.410  0.00  0.00    +0.165 A 
ATOM      7  S   UNL     1     -15.381   2.363 -23.048  0.00  0.00    -0.060 S 
ATOM      8  C   UNL     1     -16.700   3.459 -23.063  0.00  0.00    +0.068 A 
ATOM      9  C   UNL     1     -16.822   4.046 -21.821  0.00  0.00    +0.120 A 
ATOM     10  N   UNL     1     -15.898   3.642 -20.878  0.00  0.00    -0.233 NA
ATOM     11  O   UNL     1     -14.165   3.026 -18.749  0.00  0.00    -0.252 OA
ENDROOT
BRANCH   1  15
ATOM     12  C   UNL     1     -10.424   1.317 -15.612  0.00  0.00    +0.020 A 
ATOM     13  C   UNL     1     -10.710   2.525 -16.239  0.00  0.00    +0.043 A 
ATOM     14  C   UNL     1     -11.410   2.551 -17.448  0.00  0.00    +0.043 A 
ATOM     15  C   UNL     1     -11.835   1.356 -18.046  0.00  0.00    +0.036 A 
ATOM     16  C   UNL     1     -11.544   0.147 -17.410  0.00  0.00    +0.023 A 
ATOM     17 CL   UNL     1     -10.196   4.003 -15.521  0.00  0.00    -0.083 Cl
ATOM     18  C   UNL     1     -10.844   0.126 -16.199  0.00  0.00    +0.003 A 
ENDBRANCH   1  15
TORSDOF 1
ENDMDL
MODEL 6
REMARK VINA RESULT:      -5.7     14.556     16.725
REMARK  Name = min_compound914.pdb
REMARK  1 active torsions:
REMARK  status: ('A' for Active; 'I' for Inactive)
REMARK    1  A    between atoms: _7  and  _15
REMARK                            x       y       z     vdW  Elec       q    Type
REMARK                         _______ _______ _______ _____ _____    ______ ____
ROOT
ATOM      1  N   UNL     1     -12.532   1.510 -19.165  0.00  0.00    -0.269 N 
ATOM      2  H   UNL     1     -12.263   0.826 -19.854  0.00  0.00    +0.156 HD
ATOM      3  C   UNL     1     -13.591   2.350 -19.504  0.00  0.00    +0.310 C 
ATOM      4  N   UNL     1     -14.058   2.043 -20.768  0.00  0.00    -0.248 N 
ATOM      5  H   UNL     1     -13.647   1.305 -21.309  0.00  0.00    +0.158 HD
ATOM      6  C   UNL     1     -15.097   2.713 -21.353  0.00  0.00    +0.165 A 
ATOM      7  S   UNL     1     -15.484   2.141 -22.918  0.00  0.00    -0.060 S 
ATOM      8  C   UNL     1     -16.732   3.315 -23.017  0.00  0.00    +0.068 A 
ATOM      9  C   UNL     1     -16.760   4.053 -21.853  0.00  0.00    +0.120 A 
ATOM     10  N   UNL     1     -15.821   3.703 -20.904  0.00  0.00    -0.233 NA
ATOM     11  O   UNL     1     -14.035   3.230 -18.781  0.00  0.00    -0.252 OA
ENDROOT
BRANCH   1  15
ATOM     12  C   UNL     1     -10.299   1.309 -15.586  0.00  0.00    +0.020 A 
ATOM     13  C   UNL     1     -10.703   0.160 -16.257  0.00  0.00    +0.043 A 
ATOM     14  C   UNL     1     -11.441   0.249 -17.440  0.00  0.00    +0.043 A 
ATOM     15  C   UNL     1     -11.785   1.502 -17.967  0.00  0.00    +0.036 A 
ATOM     16  C   UNL     1     -11.376   2.652 -17.288  0.00  0.00    +0.023 A 
ATOM     17 CL   UNL     1     -10.291  -1.388 -15.626  0.00  0.00    -0.083 Cl
ATOM     18  C   UNL     1     -10.636   2.557 -16.104  0.00  0.00    +0.003 A 
ENDBRANCH   1  15
TORSDOF 1
ENDMDL
MODEL 7
REMARK VINA RESULT:      -5.7      5.142      7.947
REMARK  Name = min_compound914.pdb
REMARK  1 active torsions:
REMARK  status: ('A' for Active; 'I' for Inactive)
REMARK    1  A    between atoms: _7  and  _15
REMARK                            x       y       z     vdW  Elec       q    Type
REMARK                         _______ _______ _______ _____ _____    ______ ____
ROOT
ATOM      1  N   UNL     1     -15.083   1.401  -6.908  0.00  0.00    -0.269 N 
ATOM      2  H   UNL     1     -14.412   1.234  -7.642  0.00  0.00    +0.156 HD
ATOM      3  C   UNL     1     -16.282   1.997  -7.288  0.00  0.00    +0.310 C 
ATOM      4  N   UNL     1     -16.287   2.236  -8.650  0.00  0.00    -0.248 N 
ATOM      5  H   UNL     1     -15.503   1.988  -9.224  0.00  0.00    +0.158 HD
ATOM      6  C   UNL     1     -17.346   2.815  -9.294  0.00  0.00    +0.165 A 
ATOM      7  S   UNL     1     -17.105   3.000 -10.977  0.00  0.00    -0.060 S 
ATOM      8  C   UNL     1     -18.661   3.710 -11.103  0.00  0.00    +0.068 A 
ATOM      9  C   UNL     1     -19.248   3.753  -9.856  0.00  0.00    +0.120 A 
ATOM     10  N   UNL     1     -18.488   3.239  -8.823  0.00  0.00    -0.233 NA
ATOM     11  O   UNL     1     -17.195   2.268  -6.521  0.00  0.00    -0.252 OA
ENDROOT
BRANCH   1  15
ATOM     12  C   UNL     1     -13.949   0.045  -3.072  0.00  0.00    +0.020 A 
ATOM     13  C   UNL     1     -14.470  -0.823  -4.027  0.00  0.00    +0.043 A 
ATOM     14  C   UNL     1     -14.838  -0.353  -5.290  0.00  0.00    +0.043 A 
ATOM     15  C   UNL     1     -14.687   1.003  -5.613  0.00  0.00    +0.036 A 
ATOM     16  C   UNL     1     -14.165   1.869  -4.649  0.00  0.00    +0.023 A 
ATOM     17 CL   UNL     1     -14.662  -2.491  -3.650  0.00  0.00    -0.083 Cl
ATOM     18  C   UNL     1     -13.797   1.393  -3.385  0.00  0.00    +0.003 A 
ENDBRANCH   1  15
TORSDOF 1
ENDMDL
MODEL 8
REMARK VINA RESULT:      -5.5      5.982      7.706
REMARK  Name = min_compound914.pdb
REMARK  1 active torsions:
REMARK  status: ('A' for Active; 'I' for Inactive)
REMARK    1  A    between atoms: _7  and  _15
REMARK                            x       y       z     vdW  Elec       q    Type
REMARK                         _______ _______ _______ _____ _____    ______ ____
ROOT
ATOM      1  N   UNL     1     -16.627   2.157  -4.639  0.00  0.00    -0.269 N 
ATOM      2  H   UNL     1     -17.566   2.109  -5.001  0.00  0.00    +0.156 HD
ATOM      3  C   UNL     1     -16.198   3.403  -4.188  0.00  0.00    +0.310 C 
ATOM      4  N   UNL     1     -17.203   4.339  -4.345  0.00  0.00    -0.248 N 
ATOM      5  H   UNL     1     -18.092   4.087  -4.734  0.00  0.00    +0.158 HD
ATOM      6  C   UNL     1     -17.054   5.650  -3.984  0.00  0.00    +0.165 A 
ATOM      7  S   UNL     1     -18.443   6.604  -4.278  0.00  0.00    -0.060 S 
ATOM      8  C   UNL     1     -17.615   7.969  -3.652  0.00  0.00    +0.068 A 
ATOM      9  C   UNL     1     -16.344   7.598  -3.266  0.00  0.00    +0.120 A 
ATOM     10  N   UNL     1     -16.029   6.267  -3.459  0.00  0.00    -0.233 NA
ATOM     11  O   UNL     1     -15.090   3.628  -3.724  0.00  0.00    -0.252 OA
ENDROOT
BRANCH   1  15
ATOM     12  C   UNL     1     -14.478  -1.477  -4.503  0.00  0.00    +0.020 A 
ATOM     13  C   UNL     1     -15.026  -0.912  -3.356  0.00  0.00    +0.043 A 
ATOM     14  C   UNL     1     -15.734   0.291  -3.423  0.00  0.00    +0.043 A 
ATOM     15  C   UNL     1     -15.901   0.946  -4.651  0.00  0.00    +0.036 A 
ATOM     16  C   UNL     1     -15.347   0.373  -5.799  0.00  0.00    +0.023 A 
ATOM     17 CL   UNL     1     -14.832  -1.701  -1.838  0.00  0.00    -0.083 Cl
ATOM     18  C   UNL     1     -14.640  -0.832  -5.726  0.00  0.00    +0.003 A 
ENDBRANCH   1  15
TORSDOF 1
ENDMDL
MODEL 9
REMARK VINA RESULT:      -5.4     14.219     15.705
REMARK  Name = min_compound914.pdb
REMARK  1 active torsions:
REMARK  status: ('A' for Active; 'I' for Inactive)
REMARK    1  A    between atoms: _7  and  _15
REMARK                            x       y       z     vdW  Elec       q    Type
REMARK                         _______ _______ _______ _____ _____    ______ ____
ROOT
ATOM      1  N   UNL     1     -13.097   2.826 -18.284  0.00  0.00    -0.269 N 
ATOM      2  H   UNL     1     -12.759   3.105 -19.191  0.00  0.00    +0.156 HD
ATOM      3  C   UNL     1     -14.442   3.072 -18.020  0.00  0.00    +0.310 C 
ATOM      4  N   UNL     1     -15.041   3.671 -19.112  0.00  0.00    -0.248 N 
ATOM      5  H   UNL     1     -14.521   3.871 -19.946  0.00  0.00    +0.158 HD
ATOM      6  C   UNL     1     -16.362   4.024 -19.128  0.00  0.00    +0.165 A 
ATOM      7  S   UNL     1     -16.860   4.747 -20.597  0.00  0.00    -0.060 S 
ATOM      8  C   UNL     1     -18.444   4.906 -19.959  0.00  0.00    +0.068 A 
ATOM      9  C   UNL     1     -18.477   4.398 -18.678  0.00  0.00    +0.120 A 
ATOM     10  N   UNL     1     -17.280   3.894 -18.208  0.00  0.00    -0.233 NA
ATOM     11  O   UNL     1     -15.004   2.796 -16.971  0.00  0.00    -0.252 OA
ENDROOT
BRANCH   1  15
ATOM     12  C   UNL     1     -10.222   0.920 -15.846  0.00  0.00    +0.020 A 
ATOM     13  C   UNL     1     -10.572   0.411 -17.093  0.00  0.00    +0.043 A 
ATOM     14  C   UNL     1     -11.525   1.058 -17.883  0.00  0.00    +0.043 A 
ATOM     15  C   UNL     1     -12.144   2.231 -17.429  0.00  0.00    +0.036 A 
ATOM     16  C   UNL     1     -11.788   2.736 -16.176  0.00  0.00    +0.023 A 
ATOM     17 CL   UNL     1      -9.824  -1.029 -17.669  0.00  0.00    -0.083 Cl
ATOM     18  C   UNL     1     -10.832   2.084 -15.388  0.00  0.00    +0.003 A 
ENDBRANCH   1  15
TORSDOF 1
ENDMDL
