MODEL 1
REMARK VINA RESULT:      -5.0      0.000      0.000
REMARK  Name = min_compound2.pdb
REMARK  2 active torsions:
REMARK  status: ('A' for Active; 'I' for Inactive)
REMARK    1  A    between atoms: _1  and  _9
REMARK    2  A    between atoms: _2  and  _7
REMARK                            x       y       z     vdW  Elec       q    Type
REMARK                         _______ _______ _______ _____ _____    ______ ____
ROOT
ATOM      1  C   UNL     1     -11.553   1.084 -17.415  0.00  0.00    -0.035 A 
ATOM      2  C   UNL     1     -12.462   1.704 -18.435  0.00  0.00    +0.044 C 
ATOM      3  C   UNL     1     -11.013  -0.198 -17.618  0.00  0.00    +0.024 A 
ATOM      4  C   UNL     1     -10.127  -0.718 -16.684  0.00  0.00    +0.111 A 
ATOM      5  N   UNL     1      -9.735  -0.057 -15.578  0.00  0.00    -0.262 NA
ATOM      6  C   UNL     1     -10.253   1.185 -15.398  0.00  0.00    +0.124 A 
ATOM      7  C   UNL     1     -11.167   1.786 -16.260  0.00  0.00    +0.057 A 
ENDROOT
BRANCH   7   8
ATOM      8  C   UNL     1     -11.634   3.143 -15.896  0.00  0.00    +0.243 C 
ATOM      9  N   UNL     1     -10.843   4.202 -16.245  0.00  0.00    -0.325 N 
ATOM     10  H   UNL     1     -10.089   4.118 -16.911  0.00  0.00    +0.145 HD
ATOM     11  H   UNL     1     -11.235   5.122 -16.089  0.00  0.00    +0.145 HD
ATOM     12  O   UNL     1     -12.713   3.320 -15.347  0.00  0.00    -0.270 OA
ENDBRANCH   7   8
TORSDOF 1
ENDMDL
MODEL 2
REMARK VINA RESULT:      -5.0      2.222      3.776
REMARK  Name = min_compound2.pdb
REMARK  2 active torsions:
REMARK  status: ('A' for Active; 'I' for Inactive)
REMARK    1  A    between atoms: _1  and  _9
REMARK    2  A    between atoms: _2  and  _7
REMARK                            x       y       z     vdW  Elec       q    Type
REMARK                         _______ _______ _______ _____ _____    ______ ____
ROOT
ATOM      1  C   UNL     1     -11.516   3.246 -15.869  0.00  0.00    -0.035 A 
ATOM      2  C   UNL     1     -10.254   4.028 -15.660  0.00  0.00    +0.044 C 
ATOM      3  C   UNL     1     -12.771   3.878 -15.821  0.00  0.00    +0.024 A 
ATOM      4  C   UNL     1     -13.916   3.137 -16.079  0.00  0.00    +0.111 A 
ATOM      5  N   UNL     1     -13.903   1.826 -16.387  0.00  0.00    -0.262 NA
ATOM      6  C   UNL     1     -12.686   1.228 -16.443  0.00  0.00    +0.124 A 
ATOM      7  C   UNL     1     -11.481   1.874 -16.177  0.00  0.00    +0.057 A 
ENDROOT
BRANCH   7   8
ATOM      8  C   UNL     1     -10.251   1.058 -16.274  0.00  0.00    +0.243 C 
ATOM      9  N   UNL     1      -9.631   0.985 -17.490  0.00  0.00    -0.325 N 
ATOM     10  H   UNL     1      -9.844   1.620 -18.245  0.00  0.00    +0.145 HD
ATOM     11  H   UNL     1      -8.732   0.518 -17.506  0.00  0.00    +0.145 HD
ATOM     12  O   UNL     1      -9.772   0.506 -15.292  0.00  0.00    -0.270 OA
ENDBRANCH   7   8
TORSDOF 1
ENDMDL
MODEL 3
REMARK VINA RESULT:      -4.9      1.759      2.391
REMARK  Name = min_compound2.pdb
REMARK  2 active torsions:
REMARK  status: ('A' for Active; 'I' for Inactive)
REMARK    1  A    between atoms: _1  and  _9
REMARK    2  A    between atoms: _2  and  _7
REMARK                            x       y       z     vdW  Elec       q    Type
REMARK                         _______ _______ _______ _____ _____    ______ ____
ROOT
ATOM      1  C   UNL     1     -11.029   1.746 -15.955  0.00  0.00    -0.035 A 
ATOM      2  C   UNL     1     -10.795   3.189 -15.620  0.00  0.00    +0.044 C 
ATOM      3  C   UNL     1     -10.040   0.778 -15.701  0.00  0.00    +0.024 A 
ATOM      4  C   UNL     1     -10.312  -0.557 -15.967  0.00  0.00    +0.111 A 
ATOM      5  N   UNL     1     -11.488  -0.997 -16.454  0.00  0.00    -0.262 NA
ATOM      6  C   UNL     1     -12.439  -0.057 -16.683  0.00  0.00    +0.124 A 
ATOM      7  C   UNL     1     -12.260   1.308 -16.475  0.00  0.00    +0.057 A 
ENDROOT
BRANCH   7   8
ATOM      8  C   UNL     1     -13.406   2.188 -16.794  0.00  0.00    +0.243 C 
ATOM      9  N   UNL     1     -13.491   2.685 -18.065  0.00  0.00    -0.325 N 
ATOM     10  H   UNL     1     -12.945   2.314 -18.829  0.00  0.00    +0.145 HD
ATOM     11  H   UNL     1     -14.339   3.188 -18.293  0.00  0.00    +0.145 HD
ATOM     12  O   UNL     1     -14.279   2.424 -15.969  0.00  0.00    -0.270 OA
ENDBRANCH   7   8
TORSDOF 1
ENDMDL
MODEL 4
REMARK VINA RESULT:      -4.7      2.014      3.481
REMARK  Name = min_compound2.pdb
REMARK  2 active torsions:
REMARK  status: ('A' for Active; 'I' for Inactive)
REMARK    1  A    between atoms: _1  and  _9
REMARK    2  A    between atoms: _2  and  _7
REMARK                            x       y       z     vdW  Elec       q    Type
REMARK                         _______ _______ _______ _____ _____    ______ ____
ROOT
ATOM      1  C   UNL     1     -12.324   1.348 -16.357  0.00  0.00    -0.035 A 
ATOM      2  C   UNL     1     -12.871  -0.037 -16.540  0.00  0.00    +0.044 C 
ATOM      3  C   UNL     1     -13.186   2.453 -16.246  0.00  0.00    +0.024 A 
ATOM      4  C   UNL     1     -12.651   3.713 -16.017  0.00  0.00    +0.111 A 
ATOM      5  N   UNL     1     -11.332   3.950 -15.880  0.00  0.00    -0.262 NA
ATOM      6  C   UNL     1     -10.510   2.874 -15.976  0.00  0.00    +0.124 A 
ATOM      7  C   UNL     1     -10.943   1.575 -16.230  0.00  0.00    +0.057 A 
ENDROOT
BRANCH   7   8
ATOM      8  C   UNL     1      -9.900   0.529 -16.314  0.00  0.00    +0.243 C 
ATOM      9  N   UNL     1      -9.239   0.385 -17.502  0.00  0.00    -0.325 N 
ATOM     10  H   UNL     1      -9.276   1.083 -18.231  0.00  0.00    +0.145 HD
ATOM     11  H   UNL     1      -8.454  -0.255 -17.503  0.00  0.00    +0.145 HD
ATOM     12  O   UNL     1      -9.598  -0.152 -15.343  0.00  0.00    -0.270 OA
ENDBRANCH   7   8
TORSDOF 1
ENDMDL
MODEL 5
REMARK VINA RESULT:      -4.7     11.631     12.503
REMARK  Name = min_compound2.pdb
REMARK  2 active torsions:
REMARK  status: ('A' for Active; 'I' for Inactive)
REMARK    1  A    between atoms: _1  and  _9
REMARK    2  A    between atoms: _2  and  _7
REMARK                            x       y       z     vdW  Elec       q    Type
REMARK                         _______ _______ _______ _____ _____    ______ ____
ROOT
ATOM      1  C   UNL     1     -14.102   0.856  -3.972  0.00  0.00    -0.035 A 
ATOM      2  C   UNL     1     -13.778   2.315  -3.846  0.00  0.00    +0.044 C 
ATOM      3  C   UNL     1     -13.973  -0.008  -2.870  0.00  0.00    +0.024 A 
ATOM      4  C   UNL     1     -14.339  -1.340  -3.004  0.00  0.00    +0.111 A 
ATOM      5  N   UNL     1     -14.829  -1.869  -4.142  0.00  0.00    -0.262 NA
ATOM      6  C   UNL     1     -14.962  -1.023  -5.195  0.00  0.00    +0.124 A 
ATOM      7  C   UNL     1     -14.601   0.321  -5.173  0.00  0.00    +0.057 A 
ENDROOT
BRANCH   7   8
ATOM      8  C   UNL     1     -14.804   1.088  -6.423  0.00  0.00    +0.243 C 
ATOM      9  N   UNL     1     -16.006   1.716  -6.594  0.00  0.00    -0.325 N 
ATOM     10  H   UNL     1     -16.656   1.858  -5.834  0.00  0.00    +0.145 HD
ATOM     11  H   UNL     1     -16.081   2.326  -7.398  0.00  0.00    +0.145 HD
ATOM     12  O   UNL     1     -13.914   1.201  -7.255  0.00  0.00    -0.270 OA
ENDBRANCH   7   8
TORSDOF 1
ENDMDL
MODEL 6
REMARK VINA RESULT:      -4.6     13.075     13.581
REMARK  Name = min_compound2.pdb
REMARK  2 active torsions:
REMARK  status: ('A' for Active; 'I' for Inactive)
REMARK    1  A    between atoms: _1  and  _9
REMARK    2  A    between atoms: _2  and  _7
REMARK                            x       y       z     vdW  Elec       q    Type
REMARK                         _______ _______ _______ _____ _____    ______ ____
ROOT
ATOM      1  C   UNL     1     -14.609   1.279  -3.789  0.00  0.00    -0.035 A 
ATOM      2  C   UNL     1     -13.210   1.129  -3.269  0.00  0.00    +0.044 C 
ATOM      3  C   UNL     1     -15.205   2.548  -3.895  0.00  0.00    +0.024 A 
ATOM      4  C   UNL     1     -16.478   2.659  -4.436  0.00  0.00    +0.111 A 
ATOM      5  N   UNL     1     -17.191   1.608  -4.886  0.00  0.00    -0.262 NA
ATOM      6  C   UNL     1     -16.602   0.390  -4.790  0.00  0.00    +0.124 A 
ATOM      7  C   UNL     1     -15.342   0.168  -4.241  0.00  0.00    +0.057 A 
ENDROOT
BRANCH   7   8
ATOM      8  C   UNL     1     -14.865  -1.233  -4.208  0.00  0.00    +0.243 C 
ATOM      9  N   UNL     1     -14.447  -1.789  -5.385  0.00  0.00    -0.325 N 
ATOM     10  H   UNL     1     -14.248  -1.235  -6.205  0.00  0.00    +0.145 HD
ATOM     11  H   UNL     1     -14.019  -2.704  -5.320  0.00  0.00    +0.145 HD
ATOM     12  O   UNL     1     -14.797  -1.860  -3.159  0.00  0.00    -0.270 OA
ENDBRANCH   7   8
TORSDOF 1
ENDMDL
MODEL 7
REMARK VINA RESULT:      -4.5     12.188     13.142
REMARK  Name = min_compound2.pdb
REMARK  2 active torsions:
REMARK  status: ('A' for Active; 'I' for Inactive)
REMARK    1  A    between atoms: _1  and  _9
REMARK    2  A    between atoms: _2  and  _7
REMARK                            x       y       z     vdW  Elec       q    Type
REMARK                         _______ _______ _______ _____ _____    ______ ____
ROOT
ATOM      1  C   UNL     1     -14.087   0.756  -4.440  0.00  0.00    -0.035 A 
ATOM      2  C   UNL     1     -13.642   1.703  -3.365  0.00  0.00    +0.044 C 
ATOM      3  C   UNL     1     -13.933   1.085  -5.798  0.00  0.00    +0.024 A 
ATOM      4  C   UNL     1     -14.300   0.162  -6.767  0.00  0.00    +0.111 A 
ATOM      5  N   UNL     1     -14.796  -1.058  -6.486  0.00  0.00    -0.262 NA
ATOM      6  C   UNL     1     -14.929  -1.371  -5.172  0.00  0.00    +0.124 A 
ATOM      7  C   UNL     1     -14.615  -0.508  -4.125  0.00  0.00    +0.057 A 
ENDROOT
BRANCH   7   8
ATOM      8  C   UNL     1     -14.838  -1.017  -2.753  0.00  0.00    +0.243 C 
ATOM      9  N   UNL     1     -16.103  -0.935  -2.243  0.00  0.00    -0.325 N 
ATOM     10  H   UNL     1     -16.910  -0.752  -2.823  0.00  0.00    +0.145 HD
ATOM     11  H   UNL     1     -16.257  -1.391  -1.352  0.00  0.00    +0.145 HD
ATOM     12  O   UNL     1     -13.936  -1.540  -2.112  0.00  0.00    -0.270 OA
ENDBRANCH   7   8
TORSDOF 1
ENDMDL
MODEL 8
REMARK VINA RESULT:      -4.5      2.136      4.069
REMARK  Name = min_compound2.pdb
REMARK  2 active torsions:
REMARK  status: ('A' for Active; 'I' for Inactive)
REMARK    1  A    between atoms: _1  and  _9
REMARK    2  A    between atoms: _2  and  _7
REMARK                            x       y       z     vdW  Elec       q    Type
REMARK                         _______ _______ _______ _____ _____    ______ ____
ROOT
ATOM      1  C   UNL     1     -11.512   2.458 -16.560  0.00  0.00    -0.035 A 
ATOM      2  C   UNL     1     -10.678   2.189 -15.342  0.00  0.00    +0.044 C 
ATOM      3  C   UNL     1     -11.844   3.774 -16.928  0.00  0.00    +0.024 A 
ATOM      4  C   UNL     1     -12.565   3.992 -18.094  0.00  0.00    +0.111 A 
ATOM      5  N   UNL     1     -12.968   3.005 -18.918  0.00  0.00    -0.262 NA
ATOM      6  C   UNL     1     -12.632   1.740 -18.559  0.00  0.00    +0.124 A 
ATOM      7  C   UNL     1     -11.934   1.413 -17.400  0.00  0.00    +0.057 A 
ENDROOT
BRANCH   7   8
ATOM      8  C   UNL     1     -11.667  -0.024 -17.166  0.00  0.00    +0.243 C 
ATOM      9  N   UNL     1     -10.487  -0.535 -17.628  0.00  0.00    -0.325 N 
ATOM     10  H   UNL     1      -9.718   0.053 -17.918  0.00  0.00    +0.145 HD
ATOM     11  H   UNL     1     -10.275  -1.487 -17.357  0.00  0.00    +0.145 HD
ATOM     12  O   UNL     1     -12.449  -0.724 -16.535  0.00  0.00    -0.270 OA
ENDBRANCH   7   8
TORSDOF 1
ENDMDL
MODEL 9
REMARK VINA RESULT:      -4.5      2.002      2.714
REMARK  Name = min_compound2.pdb
REMARK  2 active torsions:
REMARK  status: ('A' for Active; 'I' for Inactive)
REMARK    1  A    between atoms: _1  and  _9
REMARK    2  A    between atoms: _2  and  _7
REMARK                            x       y       z     vdW  Elec       q    Type
REMARK                         _______ _______ _______ _____ _____    ______ ____
ROOT
ATOM      1  C   UNL     1     -10.906   2.664 -16.173  0.00  0.00    -0.035 A 
ATOM      2  C   UNL     1     -10.374   3.949 -15.610  0.00  0.00    +0.044 C 
ATOM      3  C   UNL     1     -10.348   1.429 -15.800  0.00  0.00    +0.024 A 
ATOM      4  C   UNL     1     -10.904   0.256 -16.292  0.00  0.00    +0.111 A 
ATOM      5  N   UNL     1     -11.970   0.222 -17.114  0.00  0.00    -0.262 NA
ATOM      6  C   UNL     1     -12.509   1.419 -17.458  0.00  0.00    +0.124 A 
ATOM      7  C   UNL     1     -12.013   2.652 -17.040  0.00  0.00    +0.057 A 
ENDROOT
BRANCH   7   8
ATOM      8  C   UNL     1     -12.722   3.856 -17.528  0.00  0.00    +0.243 C 
ATOM      9  N   UNL     1     -13.787   4.305 -16.798  0.00  0.00    -0.325 N 
ATOM     10  H   UNL     1     -13.967   3.992 -15.854  0.00  0.00    +0.145 HD
ATOM     11  H   UNL     1     -14.184   5.191 -17.084  0.00  0.00    +0.145 HD
ATOM     12  O   UNL     1     -12.343   4.463 -18.521  0.00  0.00    -0.270 OA
ENDBRANCH   7   8
TORSDOF 1
ENDMDL
