MODEL 1
REMARK VINA RESULT:      -5.5      0.000      0.000
REMARK  Name = min_compound931.pdb
REMARK  1 active torsions:
REMARK  status: ('A' for Active; 'I' for Inactive)
REMARK    1  A    between atoms: _9  and  _13
REMARK                            x       y       z     vdW  Elec       q    Type
REMARK                         _______ _______ _______ _____ _____    ______ ____
ROOT
ATOM      1  C   UNL     1     -10.294   0.923 -15.874  0.00  0.00    +0.183 A 
ATOM      2  N   UNL     1     -10.384   0.378 -17.065  0.00  0.00    -0.148 NA
ATOM      3  N   UNL     1     -11.319   1.024 -17.849  0.00  0.00    -0.126 NA
ATOM      4  C   UNL     1     -11.910   2.025 -17.233  0.00  0.00    +0.191 A 
ATOM      5  N   UNL     1     -12.885   2.882 -17.733  0.00  0.00    -0.231 N 
ATOM      6  C   UNL     1     -13.325   2.685 -19.046  0.00  0.00    +0.232 C 
ATOM      7  C   UNL     1     -14.322   3.738 -19.484  0.00  0.00    +0.167 C 
ATOM      8  S   UNL     1     -14.313   5.036 -18.243  0.00  0.00    -0.123 S 
ATOM      9  O   UNL     1     -13.000   1.788 -19.817  0.00  0.00    -0.274 OA
ATOM     10  C   UNL     1     -13.508   3.977 -17.023  0.00  0.00    +0.178 C 
ATOM     11  S   UNL     1     -11.332   2.259 -15.627  0.00  0.00    -0.038 S 
ENDROOT
BRANCH  10  12
ATOM     12  C   UNL     1     -14.501   3.512 -15.981  0.00  0.00    +0.021 A 
ATOM     13  S   UNL     1     -14.892   4.453 -14.594  0.00  0.00    -0.099 S 
ATOM     14  C   UNL     1     -15.990   3.281 -14.016  0.00  0.00    +0.045 A 
ATOM     15  C   UNL     1     -16.066   2.189 -14.849  0.00  0.00    +0.008 A 
ATOM     16  C   UNL     1     -15.206   2.319 -15.977  0.00  0.00    +0.014 A 
ENDBRANCH  10  12
TORSDOF 1
ENDMDL
MODEL 2
REMARK VINA RESULT:      -5.5      2.389      4.095
REMARK  Name = min_compound931.pdb
REMARK  1 active torsions:
REMARK  status: ('A' for Active; 'I' for Inactive)
REMARK    1  A    between atoms: _9  and  _13
REMARK                            x       y       z     vdW  Elec       q    Type
REMARK                         _______ _______ _______ _____ _____    ______ ____
ROOT
ATOM      1  C   UNL     1     -13.486   6.987 -18.530  0.00  0.00    +0.183 A 
ATOM      2  N   UNL     1     -12.285   7.280 -18.090  0.00  0.00    -0.148 NA
ATOM      3  N   UNL     1     -11.704   6.206 -17.445  0.00  0.00    -0.126 NA
ATOM      4  C   UNL     1     -12.478   5.142 -17.410  0.00  0.00    +0.191 A 
ATOM      5  N   UNL     1     -12.198   3.899 -16.851  0.00  0.00    -0.231 N 
ATOM      6  C   UNL     1     -10.957   3.718 -16.233  0.00  0.00    +0.232 C 
ATOM      7  C   UNL     1     -10.758   2.298 -15.745  0.00  0.00    +0.167 C 
ATOM      8  S   UNL     1     -12.078   1.300 -16.441  0.00  0.00    -0.123 S 
ATOM      9  O   UNL     1     -10.079   4.557 -16.058  0.00  0.00    -0.274 OA
ATOM     10  C   UNL     1     -13.077   2.750 -16.837  0.00  0.00    +0.178 C 
ATOM     11  S   UNL     1     -13.990   5.387 -18.199  0.00  0.00    -0.038 S 
ENDROOT
BRANCH  10  12
ATOM     12  C   UNL     1     -14.219   2.896 -15.857  0.00  0.00    +0.021 A 
ATOM     13  S   UNL     1     -14.222   4.087 -14.614  0.00  0.00    -0.099 S 
ATOM     14  C   UNL     1     -15.748   3.585 -14.035  0.00  0.00    +0.045 A 
ATOM     15  C   UNL     1     -16.256   2.533 -14.760  0.00  0.00    +0.008 A 
ATOM     16  C   UNL     1     -15.375   2.133 -15.806  0.00  0.00    +0.014 A 
ENDBRANCH  10  12
TORSDOF 1
ENDMDL
MODEL 3
REMARK VINA RESULT:      -5.4     11.920     13.623
REMARK  Name = min_compound931.pdb
REMARK  1 active torsions:
REMARK  status: ('A' for Active; 'I' for Inactive)
REMARK    1  A    between atoms: _9  and  _13
REMARK                            x       y       z     vdW  Elec       q    Type
REMARK                         _______ _______ _______ _____ _____    ______ ____
ROOT
ATOM      1  C   UNL     1     -15.518  -3.162  -2.297  0.00  0.00    +0.183 A 
ATOM      2  N   UNL     1     -14.309  -2.789  -1.949  0.00  0.00    -0.148 NA
ATOM      3  N   UNL     1     -14.045  -1.492  -2.340  0.00  0.00    -0.126 NA
ATOM      4  C   UNL     1     -15.050  -0.927  -2.974  0.00  0.00    +0.191 A 
ATOM      5  N   UNL     1     -15.120   0.363  -3.489  0.00  0.00    -0.231 N 
ATOM      6  C   UNL     1     -14.003   1.192  -3.345  0.00  0.00    +0.232 C 
ATOM      7  C   UNL     1     -14.250   2.589  -3.876  0.00  0.00    +0.167 C 
ATOM      8  S   UNL     1     -16.010   2.739  -4.199  0.00  0.00    -0.123 S 
ATOM      9  O   UNL     1     -12.912   0.902  -2.865  0.00  0.00    -0.274 OA
ATOM     10  C   UNL     1     -16.249   0.950  -4.176  0.00  0.00    +0.178 C 
ATOM     11  S   UNL     1     -16.420  -1.963  -3.115  0.00  0.00    -0.038 S 
ENDROOT
BRANCH  10  12
ATOM     12  C   UNL     1     -16.423   0.416  -5.581  0.00  0.00    +0.021 A 
ATOM     13  S   UNL     1     -17.962  -0.024  -6.217  0.00  0.00    -0.099 S 
ATOM     14  C   UNL     1     -17.293  -0.477  -7.721  0.00  0.00    +0.045 A 
ATOM     15  C   UNL     1     -15.928  -0.306  -7.752  0.00  0.00    +0.008 A 
ATOM     16  C   UNL     1     -15.427   0.204  -6.521  0.00  0.00    +0.014 A 
ENDBRANCH  10  12
TORSDOF 1
ENDMDL
MODEL 4
REMARK VINA RESULT:      -5.1     12.436     14.069
REMARK  Name = min_compound931.pdb
REMARK  1 active torsions:
REMARK  status: ('A' for Active; 'I' for Inactive)
REMARK    1  A    between atoms: _9  and  _13
REMARK                            x       y       z     vdW  Elec       q    Type
REMARK                         _______ _______ _______ _____ _____    ______ ____
ROOT
ATOM      1  C   UNL     1     -16.607  -2.408  -0.950  0.00  0.00    +0.183 A 
ATOM      2  N   UNL     1     -17.839  -2.537  -1.382  0.00  0.00    -0.148 NA
ATOM      3  N   UNL     1     -17.963  -2.127  -2.695  0.00  0.00    -0.126 NA
ATOM      4  C   UNL     1     -16.832  -1.698  -3.213  0.00  0.00    +0.191 A 
ATOM      5  N   UNL     1     -16.605  -1.228  -4.502  0.00  0.00    -0.231 N 
ATOM      6  C   UNL     1     -17.688  -1.181  -5.387  0.00  0.00    +0.232 C 
ATOM      7  C   UNL     1     -17.280  -0.729  -6.773  0.00  0.00    +0.167 C 
ATOM      8  S   UNL     1     -15.485  -0.735  -6.835  0.00  0.00    -0.123 S 
ATOM      9  O   UNL     1     -18.861  -1.448  -5.149  0.00  0.00    -0.274 OA
ATOM     10  C   UNL     1     -15.342  -0.768  -5.036  0.00  0.00    +0.178 C 
ATOM     11  S   UNL     1     -15.512  -1.790  -2.109  0.00  0.00    -0.038 S 
ENDROOT
BRANCH  10  12
ATOM     12  C   UNL     1     -14.941   0.590  -4.506  0.00  0.00    +0.021 A 
ATOM     13  S   UNL     1     -16.046   1.907  -4.410  0.00  0.00    -0.099 S 
ATOM     14  C   UNL     1     -14.862   2.950  -3.757  0.00  0.00    +0.045 A 
ATOM     15  C   UNL     1     -13.646   2.324  -3.612  0.00  0.00    +0.008 A 
ATOM     16  C   UNL     1     -13.689   0.968  -4.046  0.00  0.00    +0.014 A 
ENDBRANCH  10  12
TORSDOF 1
ENDMDL
MODEL 5
REMARK VINA RESULT:      -5.0      5.392      7.344
REMARK  Name = min_compound931.pdb
REMARK  1 active torsions:
REMARK  status: ('A' for Active; 'I' for Inactive)
REMARK    1  A    between atoms: _9  and  _13
REMARK                            x       y       z     vdW  Elec       q    Type
REMARK                         _______ _______ _______ _____ _____    ______ ____
ROOT
ATOM      1  C   UNL     1     -15.917   8.840 -15.867  0.00  0.00    +0.183 A 
ATOM      2  N   UNL     1     -16.878   9.326 -15.118  0.00  0.00    -0.148 NA
ATOM      3  N   UNL     1     -17.063   8.573 -13.976  0.00  0.00    -0.126 NA
ATOM      4  C   UNL     1     -16.248   7.542 -13.897  0.00  0.00    +0.191 A 
ATOM      5  N   UNL     1     -16.163   6.594 -12.883  0.00  0.00    -0.231 N 
ATOM      6  C   UNL     1     -17.038   6.709 -11.798  0.00  0.00    +0.232 C 
ATOM      7  C   UNL     1     -16.778   5.664 -10.734  0.00  0.00    +0.167 C 
ATOM      8  S   UNL     1     -15.218   4.868 -11.132  0.00  0.00    -0.123 S 
ATOM      9  O   UNL     1     -17.942   7.525 -11.649  0.00  0.00    -0.274 OA
ATOM     10  C   UNL     1     -15.248   5.476 -12.831  0.00  0.00    +0.178 C 
ATOM     11  S   UNL     1     -15.167   7.439 -15.235  0.00  0.00    -0.038 S 
ENDROOT
BRANCH  10  12
ATOM     12  C   UNL     1     -15.623   4.367 -13.789  0.00  0.00    +0.021 A 
ATOM     13  S   UNL     1     -14.540   3.783 -14.994  0.00  0.00    -0.099 S 
ATOM     14  C   UNL     1     -15.674   2.642 -15.566  0.00  0.00    +0.045 A 
ATOM     15  C   UNL     1     -16.857   2.695 -14.867  0.00  0.00    +0.008 A 
ATOM     16  C   UNL     1     -16.830   3.689 -13.848  0.00  0.00    +0.014 A 
ENDBRANCH  10  12
TORSDOF 1
ENDMDL
MODEL 6
REMARK VINA RESULT:      -5.0      2.304      4.747
REMARK  Name = min_compound931.pdb
REMARK  1 active torsions:
REMARK  status: ('A' for Active; 'I' for Inactive)
REMARK    1  A    between atoms: _9  and  _13
REMARK                            x       y       z     vdW  Elec       q    Type
REMARK                         _______ _______ _______ _____ _____    ______ ____
ROOT
ATOM      1  C   UNL     1     -16.319   3.589 -15.160  0.00  0.00    +0.183 A 
ATOM      2  N   UNL     1     -16.190   2.300 -15.368  0.00  0.00    -0.148 NA
ATOM      3  N   UNL     1     -14.916   1.979 -15.794  0.00  0.00    -0.126 NA
ATOM      4  C   UNL     1     -14.126   3.026 -15.900  0.00  0.00    +0.191 A 
ATOM      5  N   UNL     1     -12.791   3.054 -16.290  0.00  0.00    -0.231 N 
ATOM      6  C   UNL     1     -12.177   1.843 -16.626  0.00  0.00    +0.232 C 
ATOM      7  C   UNL     1     -10.707   2.012 -16.948  0.00  0.00    +0.167 C 
ATOM      8  S   UNL     1     -10.237   3.675 -16.457  0.00  0.00    -0.123 S 
ATOM      9  O   UNL     1     -12.695   0.732 -16.685  0.00  0.00    -0.274 OA
ATOM     10  C   UNL     1     -11.954   4.228 -16.390  0.00  0.00    +0.178 C 
ATOM     11  S   UNL     1     -14.902   4.499 -15.457  0.00  0.00    -0.038 S 
ENDROOT
BRANCH  10  12
ATOM     12  C   UNL     1     -12.286   5.086 -17.590  0.00  0.00    +0.021 A 
ATOM     13  S   UNL     1     -12.998   4.439 -19.018  0.00  0.00    -0.099 S 
ATOM     14  C   UNL     1     -13.027   5.964 -19.784  0.00  0.00    +0.045 A 
ATOM     15  C   UNL     1     -12.506   6.955 -18.984  0.00  0.00    +0.008 A 
ATOM     16  C   UNL     1     -12.076   6.449 -17.723  0.00  0.00    +0.014 A 
ENDBRANCH  10  12
TORSDOF 1
ENDMDL
MODEL 7
REMARK VINA RESULT:      -4.9      2.705      4.381
REMARK  Name = min_compound931.pdb
REMARK  1 active torsions:
REMARK  status: ('A' for Active; 'I' for Inactive)
REMARK    1  A    between atoms: _9  and  _13
REMARK                            x       y       z     vdW  Elec       q    Type
REMARK                         _______ _______ _______ _____ _____    ______ ____
ROOT
ATOM      1  C   UNL     1     -11.933   1.019 -17.906  0.00  0.00    +0.183 A 
ATOM      2  N   UNL     1     -12.008   0.976 -16.597  0.00  0.00    -0.148 NA
ATOM      3  N   UNL     1     -12.782   2.004 -16.097  0.00  0.00    -0.126 NA
ATOM      4  C   UNL     1     -13.262   2.794 -17.035  0.00  0.00    +0.191 A 
ATOM      5  N   UNL     1     -14.080   3.908 -16.878  0.00  0.00    -0.231 N 
ATOM      6  C   UNL     1     -14.455   4.274 -15.582  0.00  0.00    +0.232 C 
ATOM      7  C   UNL     1     -15.409   5.450 -15.567  0.00  0.00    +0.167 C 
ATOM      8  S   UNL     1     -15.951   5.723 -17.258  0.00  0.00    -0.123 S 
ATOM      9  O   UNL     1     -14.095   3.763 -14.526  0.00  0.00    -0.274 OA
ATOM     10  C   UNL     1     -14.591   4.750 -17.937  0.00  0.00    +0.178 C 
ATOM     11  S   UNL     1     -12.803   2.306 -18.622  0.00  0.00    -0.038 S 
ENDROOT
BRANCH  10  12
ATOM     12  C   UNL     1     -13.533   5.652 -18.533  0.00  0.00    +0.021 A 
ATOM     13  S   UNL     1     -13.253   5.751 -20.228  0.00  0.00    -0.099 S 
ATOM     14  C   UNL     1     -12.006   6.900 -20.030  0.00  0.00    +0.045 A 
ATOM     15  C   UNL     1     -11.793   7.208 -18.707  0.00  0.00    +0.008 A 
ATOM     16  C   UNL     1     -12.668   6.488 -17.844  0.00  0.00    +0.014 A 
ENDBRANCH  10  12
TORSDOF 1
ENDMDL
MODEL 8
REMARK VINA RESULT:      -4.9     12.579     13.780
REMARK  Name = min_compound931.pdb
REMARK  1 active torsions:
REMARK  status: ('A' for Active; 'I' for Inactive)
REMARK    1  A    between atoms: _9  and  _13
REMARK                            x       y       z     vdW  Elec       q    Type
REMARK                         _______ _______ _______ _____ _____    ______ ____
ROOT
ATOM      1  C   UNL     1     -17.986   4.986  -4.423  0.00  0.00    +0.183 A 
ATOM      2  N   UNL     1     -16.880   5.399  -3.850  0.00  0.00    -0.148 NA
ATOM      3  N   UNL     1     -15.910   4.417  -3.850  0.00  0.00    -0.126 NA
ATOM      4  C   UNL     1     -16.308   3.296  -4.413  0.00  0.00    +0.191 A 
ATOM      5  N   UNL     1     -15.582   2.121  -4.587  0.00  0.00    -0.231 N 
ATOM      6  C   UNL     1     -14.268   2.082  -4.112  0.00  0.00    +0.232 C 
ATOM      7  C   UNL     1     -13.574   0.777  -4.442  0.00  0.00    +0.167 C 
ATOM      8  S   UNL     1     -14.615  -0.104  -5.611  0.00  0.00    -0.123 S 
ATOM      9  O   UNL     1     -13.672   2.953  -3.486  0.00  0.00    -0.274 OA
ATOM     10  C   UNL     1     -16.056   0.909  -5.216  0.00  0.00    +0.178 C 
ATOM     11  S   UNL     1     -17.922   3.381  -5.009  0.00  0.00    -0.038 S 
ENDROOT
BRANCH  10  12
ATOM     12  C   UNL     1     -17.029   0.139  -4.352  0.00  0.00    +0.021 A 
ATOM     13  S   UNL     1     -18.388  -0.691  -5.007  0.00  0.00    -0.099 S 
ATOM     14  C   UNL     1     -18.891  -1.234  -3.468  0.00  0.00    +0.045 A 
ATOM     15  C   UNL     1     -18.054  -0.798  -2.467  0.00  0.00    +0.008 A 
ATOM     16  C   UNL     1     -16.986  -0.004  -2.974  0.00  0.00    +0.014 A 
ENDBRANCH  10  12
TORSDOF 1
ENDMDL
MODEL 9
REMARK VINA RESULT:      -4.9     11.165     12.872
REMARK  Name = min_compound931.pdb
REMARK  1 active torsions:
REMARK  status: ('A' for Active; 'I' for Inactive)
REMARK    1  A    between atoms: _9  and  _13
REMARK                            x       y       z     vdW  Elec       q    Type
REMARK                         _______ _______ _______ _____ _____    ______ ____
ROOT
ATOM      1  C   UNL     1     -13.671   0.936  -3.695  0.00  0.00    +0.183 A 
ATOM      2  N   UNL     1     -13.283   2.172  -3.488  0.00  0.00    -0.148 NA
ATOM      3  N   UNL     1     -14.326   3.065  -3.641  0.00  0.00    -0.126 NA
ATOM      4  C   UNL     1     -15.462   2.483  -3.962  0.00  0.00    +0.191 A 
ATOM      5  N   UNL     1     -16.699   3.083  -4.178  0.00  0.00    -0.231 N 
ATOM      6  C   UNL     1     -16.787   4.473  -4.058  0.00  0.00    +0.232 C 
ATOM      7  C   UNL     1     -18.203   4.979  -4.237  0.00  0.00    +0.167 C 
ATOM      8  S   UNL     1     -19.291   3.550  -4.217  0.00  0.00    -0.123 S 
ATOM      9  O   UNL     1     -15.875   5.265  -3.842  0.00  0.00    -0.274 OA
ATOM     10  C   UNL     1     -17.928   2.407  -4.526  0.00  0.00    +0.178 C 
ATOM     11  S   UNL     1     -15.329   0.769  -4.080  0.00  0.00    -0.038 S 
ENDROOT
BRANCH  10  12
ATOM     12  C   UNL     1     -17.949   1.926  -5.960  0.00  0.00    +0.021 A 
ATOM     13  S   UNL     1     -17.395   2.899  -7.268  0.00  0.00    -0.099 S 
ATOM     14  C   UNL     1     -17.745   1.685  -8.416  0.00  0.00    +0.045 A 
ATOM     15  C   UNL     1     -18.276   0.559  -7.832  0.00  0.00    +0.008 A 
ATOM     16  C   UNL     1     -18.397   0.698  -6.420  0.00  0.00    +0.014 A 
ENDBRANCH  10  12
TORSDOF 1
ENDMDL
