MODEL 1
REMARK VINA RESULT:      -5.0      0.000      0.000
REMARK  Name = min_compound5.pdb
REMARK  5 active torsions:
REMARK  status: ('A' for Active; 'I' for Inactive)
REMARK    1  A    between atoms: _6  and  _7
REMARK    2  A    between atoms: _7  and  _8
REMARK    3  A    between atoms: _7  and  _10
REMARK    4  A    between atoms: _8  and  _9
REMARK    5  A    between atoms: _10  and  _11
REMARK                            x       y       z     vdW  Elec       q    Type
REMARK                         _______ _______ _______ _____ _____    ______ ____
ROOT
ATOM      1  H   UNL     1     -11.509   0.738 -18.163  0.00  0.00    +0.166 HD
ATOM      2  N   UNL     1     -10.911   0.437 -17.407  0.00  0.00    -0.348 N 
ATOM      3  C   UNL     1     -10.692   1.123 -16.236  0.00  0.00    +0.110 A 
ATOM      4  N   UNL     1      -9.875   0.450 -15.452  0.00  0.00    -0.241 NA
ATOM      5  C   UNL     1      -9.550  -0.690 -16.140  0.00  0.00    +0.130 A 
ATOM      6  C   UNL     1     -10.188  -0.721 -17.355  0.00  0.00    +0.104 A 
ENDROOT
BRANCH   3   7
ATOM      7  C   UNL     1     -11.345   2.455 -15.947  0.00  0.00    +0.054 C 
BRANCH   7   8
ATOM      8  C   UNL     1     -10.649   3.542 -16.793  0.00  0.00    +0.008 C 
ATOM      9  C   UNL     1      -9.889   4.579 -15.979  0.00  0.00    +0.004 C 
ENDBRANCH   7   8
BRANCH   7  10
ATOM     10  C   UNL     1     -12.865   2.331 -16.192  0.00  0.00    +0.008 C 
ATOM     11  C   UNL     1     -13.710   3.414 -15.541  0.00  0.00    +0.004 C 
ENDBRANCH   7  10
ENDBRANCH   3   7
TORSDOF 3
ENDMDL
MODEL 2
REMARK VINA RESULT:      -5.0      0.504      2.119
REMARK  Name = min_compound5.pdb
REMARK  5 active torsions:
REMARK  status: ('A' for Active; 'I' for Inactive)
REMARK    1  A    between atoms: _6  and  _7
REMARK    2  A    between atoms: _7  and  _8
REMARK    3  A    between atoms: _7  and  _10
REMARK    4  A    between atoms: _8  and  _9
REMARK    5  A    between atoms: _10  and  _11
REMARK                            x       y       z     vdW  Elec       q    Type
REMARK                         _______ _______ _______ _____ _____    ______ ____
ROOT
ATOM      1  H   UNL     1     -11.395   0.298 -18.469  0.00  0.00    +0.166 HD
ATOM      2  N   UNL     1     -10.840   0.165 -17.635  0.00  0.00    -0.348 N 
ATOM      3  C   UNL     1     -10.729   1.058 -16.596  0.00  0.00    +0.110 A 
ATOM      4  N   UNL     1      -9.946   0.575 -15.653  0.00  0.00    -0.241 NA
ATOM      5  C   UNL     1      -9.533  -0.652 -16.102  0.00  0.00    +0.130 A 
ATOM      6  C   UNL     1     -10.082  -0.930 -17.329  0.00  0.00    +0.104 A 
ENDROOT
BRANCH   3   7
ATOM      7  C   UNL     1     -11.448   2.387 -16.594  0.00  0.00    +0.054 C 
BRANCH   7   8
ATOM      8  C   UNL     1     -12.948   2.138 -16.330  0.00  0.00    +0.008 C 
ATOM      9  C   UNL     1     -13.668   3.299 -15.657  0.00  0.00    +0.004 C 
ENDBRANCH   7   8
BRANCH   7  10
ATOM     10  C   UNL     1     -10.767   3.324 -15.572  0.00  0.00    +0.008 C 
ATOM     11  C   UNL     1     -10.084   4.542 -16.173  0.00  0.00    +0.004 C 
ENDBRANCH   7  10
ENDBRANCH   3   7
TORSDOF 3
ENDMDL
MODEL 3
REMARK VINA RESULT:      -4.9     12.637     13.347
REMARK  Name = min_compound5.pdb
REMARK  5 active torsions:
REMARK  status: ('A' for Active; 'I' for Inactive)
REMARK    1  A    between atoms: _6  and  _7
REMARK    2  A    between atoms: _7  and  _8
REMARK    3  A    between atoms: _7  and  _10
REMARK    4  A    between atoms: _8  and  _9
REMARK    5  A    between atoms: _10  and  _11
REMARK                            x       y       z     vdW  Elec       q    Type
REMARK                         _______ _______ _______ _____ _____    ______ ____
ROOT
ATOM      1  H   UNL     1     -15.078  -2.577  -4.834  0.00  0.00    +0.166 HD
ATOM      2  N   UNL     1     -14.818  -2.385  -3.876  0.00  0.00    -0.348 N 
ATOM      3  C   UNL     1     -14.450  -1.159  -3.376  0.00  0.00    +0.110 A 
ATOM      4  N   UNL     1     -14.192  -1.245  -2.087  0.00  0.00    -0.241 NA
ATOM      5  C   UNL     1     -14.385  -2.560  -1.753  0.00  0.00    +0.130 A 
ATOM      6  C   UNL     1     -14.780  -3.286  -2.849  0.00  0.00    +0.104 A 
ENDROOT
BRANCH   3   7
ATOM      7  C   UNL     1     -14.389   0.079  -4.239  0.00  0.00    +0.054 C 
BRANCH   7   8
ATOM      8  C   UNL     1     -13.466   1.112  -3.558  0.00  0.00    +0.008 C 
ATOM      9  C   UNL     1     -13.969   2.547  -3.631  0.00  0.00    +0.004 C 
ENDBRANCH   7   8
BRANCH   7  10
ATOM     10  C   UNL     1     -13.954  -0.324  -5.665  0.00  0.00    +0.008 C 
ATOM     11  C   UNL     1     -14.252   0.705  -6.742  0.00  0.00    +0.004 C 
ENDBRANCH   7  10
ENDBRANCH   3   7
TORSDOF 3
ENDMDL
MODEL 4
REMARK VINA RESULT:      -4.8     12.247     13.040
REMARK  Name = min_compound5.pdb
REMARK  5 active torsions:
REMARK  status: ('A' for Active; 'I' for Inactive)
REMARK    1  A    between atoms: _6  and  _7
REMARK    2  A    between atoms: _7  and  _8
REMARK    3  A    between atoms: _7  and  _10
REMARK    4  A    between atoms: _8  and  _9
REMARK    5  A    between atoms: _10  and  _11
REMARK                            x       y       z     vdW  Elec       q    Type
REMARK                         _______ _______ _______ _____ _____    ______ ____
ROOT
ATOM      1  H   UNL     1     -14.620  -2.419  -5.163  0.00  0.00    +0.166 HD
ATOM      2  N   UNL     1     -14.592  -2.131  -4.195  0.00  0.00    -0.348 N 
ATOM      3  C   UNL     1     -14.291  -0.869  -3.743  0.00  0.00    +0.110 A 
ATOM      4  N   UNL     1     -14.361  -0.821  -2.428  0.00  0.00    -0.241 NA
ATOM      5  C   UNL     1     -14.701  -2.085  -2.024  0.00  0.00    +0.130 A 
ATOM      6  C   UNL     1     -14.856  -2.915  -3.107  0.00  0.00    +0.104 A 
ENDROOT
BRANCH   3   7
ATOM      7  C   UNL     1     -13.953   0.265  -4.681  0.00  0.00    +0.054 C 
BRANCH   7   8
ATOM      8  C   UNL     1     -14.485  -0.081  -6.088  0.00  0.00    +0.008 C 
ATOM      9  C   UNL     1     -14.261   1.007  -7.129  0.00  0.00    +0.004 C 
ENDBRANCH   7   8
BRANCH   7  10
ATOM     10  C   UNL     1     -14.506   1.583  -4.096  0.00  0.00    +0.008 C 
ATOM     11  C   UNL     1     -13.451   2.561  -3.605  0.00  0.00    +0.004 C 
ENDBRANCH   7  10
ENDBRANCH   3   7
TORSDOF 3
ENDMDL
MODEL 5
REMARK VINA RESULT:      -4.6      2.042      3.911
REMARK  Name = min_compound5.pdb
REMARK  5 active torsions:
REMARK  status: ('A' for Active; 'I' for Inactive)
REMARK    1  A    between atoms: _6  and  _7
REMARK    2  A    between atoms: _7  and  _8
REMARK    3  A    between atoms: _7  and  _10
REMARK    4  A    between atoms: _8  and  _9
REMARK    5  A    between atoms: _10  and  _11
REMARK                            x       y       z     vdW  Elec       q    Type
REMARK                         _______ _______ _______ _____ _____    ______ ____
ROOT
ATOM      1  H   UNL     1     -11.676   0.682 -19.176  0.00  0.00    +0.166 HD
ATOM      2  N   UNL     1     -12.372   1.330 -18.835  0.00  0.00    -0.348 N 
ATOM      3  C   UNL     1     -12.628   1.610 -17.514  0.00  0.00    +0.110 A 
ATOM      4  N   UNL     1     -13.581   2.513 -17.410  0.00  0.00    -0.241 NA
ATOM      5  C   UNL     1     -13.956   2.812 -18.694  0.00  0.00    +0.130 A 
ATOM      6  C   UNL     1     -13.213   2.093 -19.596  0.00  0.00    +0.104 A 
ENDROOT
BRANCH   3   7
ATOM      7  C   UNL     1     -11.871   0.947 -16.388  0.00  0.00    +0.054 C 
BRANCH   7   8
ATOM      8  C   UNL     1     -10.985  -0.170 -16.977  0.00  0.00    +0.008 C 
ATOM      9  C   UNL     1      -9.920  -0.696 -16.023  0.00  0.00    +0.004 C 
ENDBRANCH   7   8
BRANCH   7  10
ATOM     10  C   UNL     1     -11.097   2.027 -15.600  0.00  0.00    +0.008 C 
ATOM     11  C   UNL     1     -10.359   3.042 -16.456  0.00  0.00    +0.004 C 
ENDBRANCH   7  10
ENDBRANCH   3   7
TORSDOF 3
ENDMDL
MODEL 6
REMARK VINA RESULT:      -4.6     11.719     12.794
REMARK  Name = min_compound5.pdb
REMARK  5 active torsions:
REMARK  status: ('A' for Active; 'I' for Inactive)
REMARK    1  A    between atoms: _6  and  _7
REMARK    2  A    between atoms: _7  and  _8
REMARK    3  A    between atoms: _7  and  _10
REMARK    4  A    between atoms: _8  and  _9
REMARK    5  A    between atoms: _10  and  _11
REMARK                            x       y       z     vdW  Elec       q    Type
REMARK                         _______ _______ _______ _____ _____    ______ ____
ROOT
ATOM      1  H   UNL     1     -15.580  -1.893  -5.097  0.00  0.00    +0.166 HD
ATOM      2  N   UNL     1     -15.583  -1.050  -5.654  0.00  0.00    -0.348 N 
ATOM      3  C   UNL     1     -15.396   0.226  -5.178  0.00  0.00    +0.110 A 
ATOM      4  N   UNL     1     -15.439   1.098  -6.165  0.00  0.00    -0.241 NA
ATOM      5  C   UNL     1     -15.672   0.367  -7.300  0.00  0.00    +0.130 A 
ATOM      6  C   UNL     1     -15.760  -0.971  -7.007  0.00  0.00    +0.104 A 
ENDROOT
BRANCH   3   7
ATOM      7  C   UNL     1     -15.162   0.515  -3.714  0.00  0.00    +0.054 C 
BRANCH   7   8
ATOM      8  C   UNL     1     -15.565  -0.728  -2.893  0.00  0.00    +0.008 C 
ATOM      9  C   UNL     1     -14.399  -1.449  -2.232  0.00  0.00    +0.004 C 
ENDBRANCH   7   8
BRANCH   7  10
ATOM     10  C   UNL     1     -13.696   0.961  -3.519  0.00  0.00    +0.008 C 
ATOM     11  C   UNL     1     -13.470   2.463  -3.563  0.00  0.00    +0.004 C 
ENDBRANCH   7  10
ENDBRANCH   3   7
TORSDOF 3
ENDMDL
MODEL 7
REMARK VINA RESULT:      -4.6      1.930      3.847
REMARK  Name = min_compound5.pdb
REMARK  5 active torsions:
REMARK  status: ('A' for Active; 'I' for Inactive)
REMARK    1  A    between atoms: _6  and  _7
REMARK    2  A    between atoms: _7  and  _8
REMARK    3  A    between atoms: _7  and  _10
REMARK    4  A    between atoms: _8  and  _9
REMARK    5  A    between atoms: _10  and  _11
REMARK                            x       y       z     vdW  Elec       q    Type
REMARK                         _______ _______ _______ _____ _____    ______ ____
ROOT
ATOM      1  H   UNL     1     -10.807   1.806 -14.888  0.00  0.00    +0.166 HD
ATOM      2  N   UNL     1     -10.590   2.557 -15.528  0.00  0.00    -0.348 N 
ATOM      3  C   UNL     1     -10.306   2.416 -16.865  0.00  0.00    +0.110 A 
ATOM      4  N   UNL     1     -10.088   3.592 -17.417  0.00  0.00    -0.241 NA
ATOM      5  C   UNL     1     -10.221   4.510 -16.409  0.00  0.00    +0.130 A 
ATOM      6  C   UNL     1     -10.540   3.890 -15.227  0.00  0.00    +0.104 A 
ENDROOT
BRANCH   3   7
ATOM      7  C   UNL     1     -10.282   1.068 -17.546  0.00  0.00    +0.054 C 
BRANCH   7   8
ATOM      8  C   UNL     1      -9.464   0.089 -16.679  0.00  0.00    +0.008 C 
ATOM      9  C   UNL     1     -10.295  -0.983 -15.988  0.00  0.00    +0.004 C 
ENDBRANCH   7   8
BRANCH   7  10
ATOM     10  C   UNL     1     -11.734   0.618 -17.820  0.00  0.00    +0.008 C 
ATOM     11  C   UNL     1     -12.595   1.635 -18.550  0.00  0.00    +0.004 C 
ENDBRANCH   7  10
ENDBRANCH   3   7
TORSDOF 3
ENDMDL
MODEL 8
REMARK VINA RESULT:      -4.4     11.508     12.452
REMARK  Name = min_compound5.pdb
REMARK  5 active torsions:
REMARK  status: ('A' for Active; 'I' for Inactive)
REMARK    1  A    between atoms: _6  and  _7
REMARK    2  A    between atoms: _7  and  _8
REMARK    3  A    between atoms: _7  and  _10
REMARK    4  A    between atoms: _8  and  _9
REMARK    5  A    between atoms: _10  and  _11
REMARK                            x       y       z     vdW  Elec       q    Type
REMARK                         _______ _______ _______ _____ _____    ______ ____
ROOT
ATOM      1  H   UNL     1     -16.316  -1.871  -5.345  0.00  0.00    +0.166 HD
ATOM      2  N   UNL     1     -15.993  -1.130  -5.952  0.00  0.00    -0.348 N 
ATOM      3  C   UNL     1     -15.006  -0.221  -5.652  0.00  0.00    +0.110 A 
ATOM      4  N   UNL     1     -14.811   0.599  -6.665  0.00  0.00    -0.241 NA
ATOM      5  C   UNL     1     -15.703   0.218  -7.633  0.00  0.00    +0.130 A 
ATOM      6  C   UNL     1     -16.443  -0.859  -7.214  0.00  0.00    +0.104 A 
ENDROOT
BRANCH   3   7
ATOM      7  C   UNL     1     -14.275  -0.230  -4.331  0.00  0.00    +0.054 C 
BRANCH   7   8
ATOM      8  C   UNL     1     -14.633   1.057  -3.558  0.00  0.00    +0.008 C 
ATOM      9  C   UNL     1     -13.551   2.127  -3.585  0.00  0.00    +0.004 C 
ENDBRANCH   7   8
BRANCH   7  10
ATOM     10  C   UNL     1     -14.610  -1.538  -3.581  0.00  0.00    +0.008 C 
ATOM     11  C   UNL     1     -14.448  -1.473  -2.072  0.00  0.00    +0.004 C 
ENDBRANCH   7  10
ENDBRANCH   3   7
TORSDOF 3
ENDMDL
MODEL 9
REMARK VINA RESULT:      -4.3      2.169      3.907
REMARK  Name = min_compound5.pdb
REMARK  5 active torsions:
REMARK  status: ('A' for Active; 'I' for Inactive)
REMARK    1  A    between atoms: _6  and  _7
REMARK    2  A    between atoms: _7  and  _8
REMARK    3  A    between atoms: _7  and  _10
REMARK    4  A    between atoms: _8  and  _9
REMARK    5  A    between atoms: _10  and  _11
REMARK                            x       y       z     vdW  Elec       q    Type
REMARK                         _______ _______ _______ _____ _____    ______ ____
ROOT
ATOM      1  H   UNL     1     -12.131   1.711 -19.542  0.00  0.00    +0.166 HD
ATOM      2  N   UNL     1     -12.802   2.111 -18.901  0.00  0.00    -0.348 N 
ATOM      3  C   UNL     1     -12.685   2.142 -17.532  0.00  0.00    +0.110 A 
ATOM      4  N   UNL     1     -13.720   2.751 -16.993  0.00  0.00    -0.241 NA
ATOM      5  C   UNL     1     -14.530   3.110 -18.040  0.00  0.00    +0.130 A 
ATOM      6  C   UNL     1     -13.976   2.726 -19.235  0.00  0.00    +0.104 A 
ENDROOT
BRANCH   3   7
ATOM      7  C   UNL     1     -11.495   1.553 -16.811  0.00  0.00    +0.054 C 
BRANCH   7   8
ATOM      8  C   UNL     1     -11.258   2.352 -15.513  0.00  0.00    +0.008 C 
ATOM      9  C   UNL     1     -10.482   3.648 -15.706  0.00  0.00    +0.004 C 
ENDBRANCH   7   8
BRANCH   7  10
ATOM     10  C   UNL     1     -11.735   0.042 -16.597  0.00  0.00    +0.008 C 
ATOM     11  C   UNL     1     -10.477  -0.809 -16.554  0.00  0.00    +0.004 C 
ENDBRANCH   7  10
ENDBRANCH   3   7
TORSDOF 3
ENDMDL
