MODEL 1
REMARK VINA RESULT:      -6.9      0.000      0.000
REMARK  Name = min_compound978.pdb
REMARK  4 active torsions:
REMARK  status: ('A' for Active; 'I' for Inactive)
REMARK    1  A    between atoms: _13  and  _15
REMARK    2  A    between atoms: _15  and  _16
REMARK    3  A    between atoms: _16  and  _17
REMARK    4  A    between atoms: _17  and  _19
REMARK                            x       y       z     vdW  Elec       q    Type
REMARK                         _______ _______ _______ _____ _____    ______ ____
ROOT
ATOM      1  C   UNL     1     -10.046   1.152 -16.234  0.00  0.00    +0.017 A 
ATOM      2  C   UNL     1     -11.024   2.158 -16.306  0.00  0.00    +0.034 A 
ATOM      3  C   UNL     1     -12.393   1.836 -16.438  0.00  0.00    +0.048 A 
ATOM      4  N   UNL     1     -13.382   2.849 -16.468  0.00  0.00    -0.298 N 
ATOM      5  C   UNL     1     -13.123   4.161 -16.971  0.00  0.00    +0.048 A 
ATOM      6  C   UNL     1     -14.134   4.952 -17.559  0.00  0.00    +0.024 A 
ATOM      7  C   UNL     1     -13.874   6.228 -18.072  0.00  0.00    +0.002 A 
ATOM      8  C   UNL     1     -12.587   6.741 -18.036  0.00  0.00    +0.001 A 
ATOM      9  C   UNL     1     -11.562   5.980 -17.482  0.00  0.00    +0.017 A 
ATOM     10  C   UNL     1     -11.821   4.704 -16.950  0.00  0.00    +0.034 A 
ATOM     11  C   UNL     1     -12.707   0.473 -16.589  0.00  0.00    +0.024 A 
ATOM     12  C   UNL     1     -11.733  -0.528 -16.510  0.00  0.00    +0.002 A 
ATOM     13  S   UNL     1     -10.447   3.843 -16.208  0.00  0.00    -0.086 S 
ATOM     14  C   UNL     1     -10.401  -0.189 -16.321  0.00  0.00    +0.001 A 
ENDROOT
BRANCH   4  15
ATOM     15  C   UNL     1     -14.789   2.556 -16.091  0.00  0.00    +0.122 C 
BRANCH  15  16
ATOM     16  C   UNL     1     -15.244   3.120 -14.742  0.00  0.00    +0.139 C 
BRANCH  16  17
ATOM     17  C   UNL     1     -16.643   2.651 -14.442  0.00  0.00    +0.306 C 
ATOM     18  O   UNL     1     -17.160   2.510 -13.350  0.00  0.00    -0.251 OA
BRANCH  17  19
ATOM     19  O   UNL     1     -17.340   2.381 -15.565  0.00  0.00    -0.481 OA
ATOM     20  H   UNL     1     -17.772   3.232 -15.791  0.00  0.00    +0.295 HD
ENDBRANCH  17  19
ENDBRANCH  16  17
ENDBRANCH  15  16
ENDBRANCH   4  15
TORSDOF 4
ENDMDL
MODEL 2
REMARK VINA RESULT:      -6.5      3.202      5.751
REMARK  Name = min_compound978.pdb
REMARK  4 active torsions:
REMARK  status: ('A' for Active; 'I' for Inactive)
REMARK    1  A    between atoms: _13  and  _15
REMARK    2  A    between atoms: _15  and  _16
REMARK    3  A    between atoms: _16  and  _17
REMARK    4  A    between atoms: _17  and  _19
REMARK                            x       y       z     vdW  Elec       q    Type
REMARK                         _______ _______ _______ _____ _____    ______ ____
ROOT
ATOM      1  C   UNL     1     -11.857   6.199 -17.337  0.00  0.00    +0.017 A 
ATOM      2  C   UNL     1     -11.772   4.809 -17.531  0.00  0.00    +0.034 A 
ATOM      3  C   UNL     1     -12.820   4.093 -18.149  0.00  0.00    +0.048 A 
ATOM      4  N   UNL     1     -12.714   2.701 -18.382  0.00  0.00    -0.298 N 
ATOM      5  C   UNL     1     -11.941   1.838 -17.546  0.00  0.00    +0.048 A 
ATOM      6  C   UNL     1     -12.268   0.477 -17.364  0.00  0.00    +0.024 A 
ATOM      7  C   UNL     1     -11.523  -0.361 -16.527  0.00  0.00    +0.002 A 
ATOM      8  C   UNL     1     -10.439   0.145 -15.825  0.00  0.00    +0.001 A 
ATOM      9  C   UNL     1     -10.100   1.488 -15.965  0.00  0.00    +0.017 A 
ATOM     10  C   UNL     1     -10.836   2.330 -16.818  0.00  0.00    +0.034 A 
ATOM     11  C   UNL     1     -13.979   4.824 -18.467  0.00  0.00    +0.024 A 
ATOM     12  C   UNL     1     -14.061   6.208 -18.281  0.00  0.00    +0.002 A 
ATOM     13  S   UNL     1     -10.275   4.016 -16.971  0.00  0.00    -0.086 S 
ATOM     14  C   UNL     1     -12.994   6.899 -17.725  0.00  0.00    +0.001 A 
ENDROOT
BRANCH   4  15
ATOM     15  C   UNL     1     -13.515   2.040 -19.444  0.00  0.00    +0.122 C 
BRANCH  15  16
ATOM     16  C   UNL     1     -13.490   2.721 -20.814  0.00  0.00    +0.139 C 
BRANCH  16  17
ATOM     17  C   UNL     1     -13.691   1.695 -21.897  0.00  0.00    +0.306 C 
ATOM     18  O   UNL     1     -12.878   1.311 -22.716  0.00  0.00    -0.251 OA
BRANCH  17  19
ATOM     19  O   UNL     1     -14.941   1.188 -21.889  0.00  0.00    -0.481 OA
ATOM     20  H   UNL     1     -14.807   0.219 -21.810  0.00  0.00    +0.295 HD
ENDBRANCH  17  19
ENDBRANCH  16  17
ENDBRANCH  15  16
ENDBRANCH   4  15
TORSDOF 4
ENDMDL
MODEL 3
REMARK VINA RESULT:      -6.4      3.310      3.692
REMARK  Name = min_compound978.pdb
REMARK  4 active torsions:
REMARK  status: ('A' for Active; 'I' for Inactive)
REMARK    1  A    between atoms: _13  and  _15
REMARK    2  A    between atoms: _15  and  _16
REMARK    3  A    between atoms: _16  and  _17
REMARK    4  A    between atoms: _17  and  _19
REMARK                            x       y       z     vdW  Elec       q    Type
REMARK                         _______ _______ _______ _____ _____    ______ ____
ROOT
ATOM      1  C   UNL     1     -10.341   1.527 -15.760  0.00  0.00    +0.017 A 
ATOM      2  C   UNL     1     -11.140   2.412 -16.504  0.00  0.00    +0.034 A 
ATOM      3  C   UNL     1     -11.842   1.975 -17.649  0.00  0.00    +0.048 A 
ATOM      4  N   UNL     1     -12.680   2.857 -18.372  0.00  0.00    -0.298 N 
ATOM      5  C   UNL     1     -12.442   4.264 -18.435  0.00  0.00    +0.048 A 
ATOM      6  C   UNL     1     -12.834   5.043 -19.546  0.00  0.00    +0.024 A 
ATOM      7  C   UNL     1     -12.580   6.417 -19.617  0.00  0.00    +0.002 A 
ATOM      8  C   UNL     1     -11.902   7.051 -18.586  0.00  0.00    +0.001 A 
ATOM      9  C   UNL     1     -11.485   6.310 -17.485  0.00  0.00    +0.017 A 
ATOM     10  C   UNL     1     -11.751   4.932 -17.401  0.00  0.00    +0.034 A 
ATOM     11  C   UNL     1     -11.621   0.645 -18.052  0.00  0.00    +0.024 A 
ATOM     12  C   UNL     1     -10.831  -0.237 -17.307  0.00  0.00    +0.002 A 
ATOM     13  S   UNL     1     -11.227   4.095 -15.917  0.00  0.00    -0.086 S 
ATOM     14  C   UNL     1     -10.198   0.201 -16.153  0.00  0.00    +0.001 A 
ENDROOT
BRANCH   4  15
ATOM     15  C   UNL     1     -13.788   2.340 -19.216  0.00  0.00    +0.122 C 
BRANCH  15  16
ATOM     16  C   UNL     1     -13.409   1.969 -20.652  0.00  0.00    +0.139 C 
BRANCH  16  17
ATOM     17  C   UNL     1     -14.553   2.288 -21.578  0.00  0.00    +0.306 C 
ATOM     18  O   UNL     1     -14.817   3.359 -22.089  0.00  0.00    -0.251 OA
BRANCH  17  19
ATOM     19  O   UNL     1     -15.324   1.209 -21.822  0.00  0.00    -0.481 OA
ATOM     20  H   UNL     1     -15.650   1.348 -22.737  0.00  0.00    +0.295 HD
ENDBRANCH  17  19
ENDBRANCH  16  17
ENDBRANCH  15  16
ENDBRANCH   4  15
TORSDOF 4
ENDMDL
MODEL 4
REMARK VINA RESULT:      -6.2     11.617     13.737
REMARK  Name = min_compound978.pdb
REMARK  4 active torsions:
REMARK  status: ('A' for Active; 'I' for Inactive)
REMARK    1  A    between atoms: _13  and  _15
REMARK    2  A    between atoms: _15  and  _16
REMARK    3  A    between atoms: _16  and  _17
REMARK    4  A    between atoms: _17  and  _19
REMARK                            x       y       z     vdW  Elec       q    Type
REMARK                         _______ _______ _______ _____ _____    ______ ____
ROOT
ATOM      1  C   UNL     1     -16.809  -2.118  -1.676  0.00  0.00    +0.017 A 
ATOM      2  C   UNL     1     -16.647  -0.993  -2.503  0.00  0.00    +0.034 A 
ATOM      3  C   UNL     1     -15.370  -0.602  -2.962  0.00  0.00    +0.048 A 
ATOM      4  N   UNL     1     -15.214   0.506  -3.829  0.00  0.00    -0.298 N 
ATOM      5  C   UNL     1     -16.107   1.620  -3.821  0.00  0.00    +0.048 A 
ATOM      6  C   UNL     1     -15.690   2.920  -4.182  0.00  0.00    +0.024 A 
ATOM      7  C   UNL     1     -16.561   4.015  -4.151  0.00  0.00    +0.002 A 
ATOM      8  C   UNL     1     -17.872   3.848  -3.733  0.00  0.00    +0.001 A 
ATOM      9  C   UNL     1     -18.312   2.584  -3.351  0.00  0.00    +0.017 A 
ATOM     10  C   UNL     1     -17.445   1.477  -3.396  0.00  0.00    +0.034 A 
ATOM     11  C   UNL     1     -14.274  -1.336  -2.472  0.00  0.00    +0.024 A 
ATOM     12  C   UNL     1     -14.437  -2.460  -1.655  0.00  0.00    +0.002 A 
ATOM     13  S   UNL     1     -18.131  -0.106  -2.945  0.00  0.00    -0.086 S 
ATOM     14  C   UNL     1     -15.707  -2.858  -1.265  0.00  0.00    +0.001 A 
ENDROOT
BRANCH   4  15
ATOM     15  C   UNL     1     -14.024   0.624  -4.712  0.00  0.00    +0.122 C 
BRANCH  15  16
ATOM     16  C   UNL     1     -14.278   0.383  -6.202  0.00  0.00    +0.139 C 
BRANCH  16  17
ATOM     17  C   UNL     1     -15.139  -0.840  -6.379  0.00  0.00    +0.306 C 
ATOM     18  O   UNL     1     -16.308  -0.882  -6.713  0.00  0.00    -0.251 OA
BRANCH  17  19
ATOM     19  O   UNL     1     -14.463  -1.978  -6.122  0.00  0.00    -0.481 OA
ATOM     20  H   UNL     1     -15.134  -2.572  -5.723  0.00  0.00    +0.295 HD
ENDBRANCH  17  19
ENDBRANCH  16  17
ENDBRANCH  15  16
ENDBRANCH   4  15
TORSDOF 4
ENDMDL
MODEL 5
REMARK VINA RESULT:      -6.1     11.376     13.980
REMARK  Name = min_compound978.pdb
REMARK  4 active torsions:
REMARK  status: ('A' for Active; 'I' for Inactive)
REMARK    1  A    between atoms: _13  and  _15
REMARK    2  A    between atoms: _15  and  _16
REMARK    3  A    between atoms: _16  and  _17
REMARK    4  A    between atoms: _17  and  _19
REMARK                            x       y       z     vdW  Elec       q    Type
REMARK                         _______ _______ _______ _____ _____    ______ ____
ROOT
ATOM      1  C   UNL     1     -13.497   0.666  -3.086  0.00  0.00    +0.017 A 
ATOM      2  C   UNL     1     -14.639  -0.097  -3.384  0.00  0.00    +0.034 A 
ATOM      3  C   UNL     1     -15.770   0.490  -3.994  0.00  0.00    +0.048 A 
ATOM      4  N   UNL     1     -16.903  -0.287  -4.333  0.00  0.00    -0.298 N 
ATOM      5  C   UNL     1     -17.276  -1.460  -3.606  0.00  0.00    +0.048 A 
ATOM      6  C   UNL     1     -18.618  -1.886  -3.506  0.00  0.00    +0.024 A 
ATOM      7  C   UNL     1     -18.984  -3.021  -2.775  0.00  0.00    +0.002 A 
ATOM      8  C   UNL     1     -18.019  -3.752  -2.099  0.00  0.00    +0.001 A 
ATOM      9  C   UNL     1     -16.688  -3.349  -2.160  0.00  0.00    +0.017 A 
ATOM     10  C   UNL     1     -16.313  -2.218  -2.907  0.00  0.00    +0.034 A 
ATOM     11  C   UNL     1     -15.725   1.882  -4.193  0.00  0.00    +0.024 A 
ATOM     12  C   UNL     1     -14.585   2.640  -3.903  0.00  0.00    +0.002 A 
ATOM     13  S   UNL     1     -14.574  -1.830  -2.967  0.00  0.00    -0.086 S 
ATOM     14  C   UNL     1     -13.465   2.029  -3.358  0.00  0.00    +0.001 A 
ENDROOT
BRANCH   4  15
ATOM     15  C   UNL     1     -17.844   0.154  -5.394  0.00  0.00    +0.122 C 
BRANCH  15  16
ATOM     16  C   UNL     1     -17.721  -0.576  -6.734  0.00  0.00    +0.139 C 
BRANCH  16  17
ATOM     17  C   UNL     1     -16.276  -0.632  -7.152  0.00  0.00    +0.306 C 
ATOM     18  O   UNL     1     -15.600   0.271  -7.607  0.00  0.00    -0.251 OA
BRANCH  17  19
ATOM     19  O   UNL     1     -15.741  -1.855  -6.966  0.00  0.00    -0.481 OA
ATOM     20  H   UNL     1     -15.419  -1.839  -6.039  0.00  0.00    +0.295 HD
ENDBRANCH  17  19
ENDBRANCH  16  17
ENDBRANCH  15  16
ENDBRANCH   4  15
TORSDOF 4
ENDMDL
MODEL 6
REMARK VINA RESULT:      -6.0      3.053      5.487
REMARK  Name = min_compound978.pdb
REMARK  4 active torsions:
REMARK  status: ('A' for Active; 'I' for Inactive)
REMARK    1  A    between atoms: _13  and  _15
REMARK    2  A    between atoms: _15  and  _16
REMARK    3  A    between atoms: _16  and  _17
REMARK    4  A    between atoms: _17  and  _19
REMARK                            x       y       z     vdW  Elec       q    Type
REMARK                         _______ _______ _______ _____ _____    ______ ____
ROOT
ATOM      1  C   UNL     1     -13.895   4.127 -14.861  0.00  0.00    +0.017 A 
ATOM      2  C   UNL     1     -13.084   3.328 -15.684  0.00  0.00    +0.034 A 
ATOM      3  C   UNL     1     -13.575   2.795 -16.896  0.00  0.00    +0.048 A 
ATOM      4  N   UNL     1     -12.743   2.026 -17.746  0.00  0.00    -0.298 N 
ATOM      5  C   UNL     1     -11.661   1.236 -17.251  0.00  0.00    +0.048 A 
ATOM      6  C   UNL     1     -11.227   0.062 -17.905  0.00  0.00    +0.024 A 
ATOM      7  C   UNL     1     -10.182  -0.723 -17.407  0.00  0.00    +0.002 A 
ATOM      8  C   UNL     1      -9.553  -0.371 -16.223  0.00  0.00    +0.001 A 
ATOM      9  C   UNL     1      -9.967   0.769 -15.541  0.00  0.00    +0.017 A 
ATOM     10  C   UNL     1     -11.007   1.571 -16.046  0.00  0.00    +0.034 A 
ATOM     11  C   UNL     1     -14.934   3.025 -17.180  0.00  0.00    +0.024 A 
ATOM     12  C   UNL     1     -15.739   3.826 -16.363  0.00  0.00    +0.002 A 
ATOM     13  S   UNL     1     -11.414   3.042 -15.125  0.00  0.00    -0.086 S 
ATOM     14  C   UNL     1     -15.216   4.387 -15.207  0.00  0.00    +0.001 A 
ENDROOT
BRANCH   4  15
ATOM     15  C   UNL     1     -13.039   1.900 -19.196  0.00  0.00    +0.122 C 
BRANCH  15  16
ATOM     16  C   UNL     1     -13.282   3.216 -19.939  0.00  0.00    +0.139 C 
BRANCH  16  17
ATOM     17  C   UNL     1     -13.988   2.942 -21.241  0.00  0.00    +0.306 C 
ATOM     18  O   UNL     1     -13.767   3.447 -22.325  0.00  0.00    -0.251 OA
BRANCH  17  19
ATOM     19  O   UNL     1     -14.959   2.016 -21.107  0.00  0.00    -0.481 OA
ATOM     20  H   UNL     1     -15.450   2.297 -20.305  0.00  0.00    +0.295 HD
ENDBRANCH  17  19
ENDBRANCH  16  17
ENDBRANCH  15  16
ENDBRANCH   4  15
TORSDOF 4
ENDMDL
MODEL 7
REMARK VINA RESULT:      -6.0      3.487      4.946
REMARK  Name = min_compound978.pdb
REMARK  4 active torsions:
REMARK  status: ('A' for Active; 'I' for Inactive)
REMARK    1  A    between atoms: _13  and  _15
REMARK    2  A    between atoms: _15  and  _16
REMARK    3  A    between atoms: _16  and  _17
REMARK    4  A    between atoms: _17  and  _19
REMARK                            x       y       z     vdW  Elec       q    Type
REMARK                         _______ _______ _______ _____ _____    ______ ____
ROOT
ATOM      1  C   UNL     1     -13.680   4.421 -21.209  0.00  0.00    +0.017 A 
ATOM      2  C   UNL     1     -13.550   4.180 -19.831  0.00  0.00    +0.034 A 
ATOM      3  C   UNL     1     -13.285   2.883 -19.338  0.00  0.00    +0.048 A 
ATOM      4  N   UNL     1     -13.112   2.649 -17.953  0.00  0.00    -0.298 N 
ATOM      5  C   UNL     1     -13.752   3.445 -16.954  0.00  0.00    +0.048 A 
ATOM      6  C   UNL     1     -14.095   2.926 -15.686  0.00  0.00    +0.024 A 
ATOM      7  C   UNL     1     -14.742   3.700 -14.717  0.00  0.00    +0.002 A 
ATOM      8  C   UNL     1     -15.090   5.013 -14.996  0.00  0.00    +0.001 A 
ATOM      9  C   UNL     1     -14.785   5.551 -16.243  0.00  0.00    +0.017 A 
ATOM     10  C   UNL     1     -14.120   4.782 -17.215  0.00  0.00    +0.034 A 
ATOM     11  C   UNL     1     -13.255   1.844 -20.287  0.00  0.00    +0.024 A 
ATOM     12  C   UNL     1     -13.377   2.086 -21.660  0.00  0.00    +0.002 A 
ATOM     13  S   UNL     1     -13.723   5.591 -18.754  0.00  0.00    -0.086 S 
ATOM     14  C   UNL     1     -13.579   3.378 -22.123  0.00  0.00    +0.001 A 
ENDROOT
BRANCH   4  15
ATOM     15  C   UNL     1     -12.350   1.471 -17.465  0.00  0.00    +0.122 C 
BRANCH  15  16
ATOM     16  C   UNL     1     -10.832   1.653 -17.379  0.00  0.00    +0.139 C 
BRANCH  16  17
ATOM     17  C   UNL     1     -10.370   1.407 -15.967  0.00  0.00    +0.306 C 
ATOM     18  O   UNL     1      -9.830   0.410 -15.527  0.00  0.00    -0.251 OA
BRANCH  17  19
ATOM     19  O   UNL     1     -10.616   2.460 -15.162  0.00  0.00    -0.481 OA
ATOM     20  H   UNL     1      -9.746   2.906 -15.076  0.00  0.00    +0.295 HD
ENDBRANCH  17  19
ENDBRANCH  16  17
ENDBRANCH  15  16
ENDBRANCH   4  15
TORSDOF 4
ENDMDL
MODEL 8
REMARK VINA RESULT:      -6.0      8.972     10.798
REMARK  Name = min_compound978.pdb
REMARK  4 active torsions:
REMARK  status: ('A' for Active; 'I' for Inactive)
REMARK    1  A    between atoms: _13  and  _15
REMARK    2  A    between atoms: _15  and  _16
REMARK    3  A    between atoms: _16  and  _17
REMARK    4  A    between atoms: _17  and  _19
REMARK                            x       y       z     vdW  Elec       q    Type
REMARK                         _______ _______ _______ _____ _____    ______ ____
ROOT
ATOM      1  C   UNL     1     -15.119   2.604  -3.802  0.00  0.00    +0.017 A 
ATOM      2  C   UNL     1     -15.767   2.402  -5.033  0.00  0.00    +0.034 A 
ATOM      3  C   UNL     1     -15.357   1.378  -5.915  0.00  0.00    +0.048 A 
ATOM      4  N   UNL     1     -16.038   1.149  -7.134  0.00  0.00    -0.298 N 
ATOM      5  C   UNL     1     -16.707   2.189  -7.848  0.00  0.00    +0.048 A 
ATOM      6  C   UNL     1     -16.854   2.162  -9.252  0.00  0.00    +0.024 A 
ATOM      7  C   UNL     1     -17.489   3.193  -9.953  0.00  0.00    +0.002 A 
ATOM      8  C   UNL     1     -17.975   4.299  -9.271  0.00  0.00    +0.001 A 
ATOM      9  C   UNL     1     -17.830   4.368  -7.889  0.00  0.00    +0.017 A 
ATOM     10  C   UNL     1     -17.207   3.327  -7.178  0.00  0.00    +0.034 A 
ATOM     11  C   UNL     1     -14.216   0.645  -5.540  0.00  0.00    +0.024 A 
ATOM     12  C   UNL     1     -13.575   0.842  -4.312  0.00  0.00    +0.002 A 
ATOM     13  S   UNL     1     -17.131   3.490  -5.404  0.00  0.00    -0.086 S 
ATOM     14  C   UNL     1     -14.034   1.816  -3.436  0.00  0.00    +0.001 A 
ENDROOT
BRANCH   4  15
ATOM     15  C   UNL     1     -15.982  -0.176  -7.804  0.00  0.00    +0.122 C 
BRANCH  15  16
ATOM     16  C   UNL     1     -17.298  -0.957  -7.839  0.00  0.00    +0.139 C 
BRANCH  16  17
ATOM     17  C   UNL     1     -18.008  -0.818  -6.519  0.00  0.00    +0.306 C 
ATOM     18  O   UNL     1     -18.907  -0.050  -6.237  0.00  0.00    -0.251 OA
BRANCH  17  19
ATOM     19  O   UNL     1     -17.537  -1.682  -5.596  0.00  0.00    -0.481 OA
ATOM     20  H   UNL     1     -18.010  -1.437  -4.772  0.00  0.00    +0.295 HD
ENDBRANCH  17  19
ENDBRANCH  16  17
ENDBRANCH  15  16
ENDBRANCH   4  15
TORSDOF 4
ENDMDL
MODEL 9
REMARK VINA RESULT:      -5.9     13.282     14.857
REMARK  Name = min_compound978.pdb
REMARK  4 active torsions:
REMARK  status: ('A' for Active; 'I' for Inactive)
REMARK    1  A    between atoms: _13  and  _15
REMARK    2  A    between atoms: _15  and  _16
REMARK    3  A    between atoms: _16  and  _17
REMARK    4  A    between atoms: _17  and  _19
REMARK                            x       y       z     vdW  Elec       q    Type
REMARK                         _______ _______ _______ _____ _____    ______ ____
ROOT
ATOM      1  C   UNL     1     -19.311  -0.805  -3.852  0.00  0.00    +0.017 A 
ATOM      2  C   UNL     1     -17.918  -0.625  -3.897  0.00  0.00    +0.034 A 
ATOM      3  C   UNL     1     -17.045  -1.525  -3.247  0.00  0.00    +0.048 A 
ATOM      4  N   UNL     1     -15.641  -1.367  -3.329  0.00  0.00    -0.298 N 
ATOM      5  C   UNL     1     -15.019  -0.091  -3.489  0.00  0.00    +0.048 A 
ATOM      6  C   UNL     1     -13.726   0.182  -2.992  0.00  0.00    +0.024 A 
ATOM      7  C   UNL     1     -13.128   1.440  -3.130  0.00  0.00    +0.002 A 
ATOM      8  C   UNL     1     -13.817   2.472  -3.748  0.00  0.00    +0.001 A 
ATOM      9  C   UNL     1     -15.101   2.243  -4.232  0.00  0.00    +0.017 A 
ATOM     10  C   UNL     1     -15.701   0.977  -4.111  0.00  0.00    +0.034 A 
ATOM     11  C   UNL     1     -17.645  -2.542  -2.482  0.00  0.00    +0.024 A 
ATOM     12  C   UNL     1     -19.032  -2.724  -2.444  0.00  0.00    +0.002 A 
ATOM     13  S   UNL     1     -17.324   0.779  -4.823  0.00  0.00    -0.086 S 
ATOM     14  C   UNL     1     -19.866  -1.861  -3.139  0.00  0.00    +0.001 A 
ENDROOT
BRANCH   4  15
ATOM     15  C   UNL     1     -14.728  -2.521  -3.121  0.00  0.00    +0.122 C 
BRANCH  15  16
ATOM     16  C   UNL     1     -14.406  -2.856  -1.662  0.00  0.00    +0.139 C 
BRANCH  16  17
ATOM     17  C   UNL     1     -13.390  -3.966  -1.609  0.00  0.00    +0.306 C 
ATOM     18  O   UNL     1     -13.512  -5.104  -2.021  0.00  0.00    -0.251 OA
BRANCH  17  19
ATOM     19  O   UNL     1     -12.240  -3.574  -1.024  0.00  0.00    -0.481 OA
ATOM     20  H   UNL     1     -12.510  -2.844  -0.426  0.00  0.00    +0.295 HD
ENDBRANCH  17  19
ENDBRANCH  16  17
ENDBRANCH  15  16
ENDBRANCH   4  15
TORSDOF 4
ENDMDL
