MODEL 1
REMARK VINA RESULT:      -5.2      0.000      0.000
REMARK  Name = min_compound95.pdb
REMARK  4 active torsions:
REMARK  status: ('A' for Active; 'I' for Inactive)
REMARK    1  A    between atoms: _4  and  _8
REMARK    2  A    between atoms: _9  and  _10
REMARK    3  A    between atoms: _10  and  _11
REMARK    4  A    between atoms: _11  and  _12
REMARK                            x       y       z     vdW  Elec       q    Type
REMARK                         _______ _______ _______ _____ _____    ______ ____
ROOT
ATOM      1 CL   UNL     1     -14.081   1.112  -7.076  0.00  0.00    -0.060 Cl
ATOM      2  C   UNL     1     -14.154   0.464  -5.481  0.00  0.00    +0.155 A 
ATOM      3  C   UNL     1     -14.485  -0.867  -5.262  0.00  0.00    +0.102 A 
ATOM      4  C   UNL     1     -14.576  -1.210  -3.909  0.00  0.00    +0.144 A 
ATOM      5  N   UNL     1     -15.009  -2.528  -3.603  0.00  0.00    -0.325 N 
ATOM      6  H   UNL     1     -15.889  -2.664  -4.101  0.00  0.00    +0.148 HD
ATOM      7  N   UNL     1     -14.242  -0.359  -2.921  0.00  0.00    -0.219 NA
ATOM      8  C   UNL     1     -13.880   0.880  -3.284  0.00  0.00    +0.225 A 
ATOM      9  N   UNL     1     -13.828   1.355  -4.529  0.00  0.00    -0.222 NA
ENDROOT
BRANCH   3  10
ATOM     10  N   UNL     1     -14.930  -1.760  -6.271  0.00  0.00    -0.353 N 
ATOM     11  H   UNL     1     -15.520  -1.292  -6.958  0.00  0.00    +0.143 HD
ATOM     12  H   UNL     1     -14.129  -2.220  -6.704  0.00  0.00    +0.143 HD
ENDBRANCH   3  10
BRANCH   5  13
ATOM     13  C   UNL     1     -15.119  -2.806  -2.172  0.00  0.00    +0.130 C 
BRANCH  13  14
ATOM     14  C   UNL     1     -13.881  -3.564  -1.678  0.00  0.00    +0.174 C 
BRANCH  14  15
ATOM     15  O   UNL     1     -12.939  -2.686  -1.071  0.00  0.00    -0.393 OA
ATOM     16  H   UNL     1     -12.255  -2.479  -1.730  0.00  0.00    +0.209 HD
ENDBRANCH  14  15
ENDBRANCH  13  14
ENDBRANCH   5  13
TORSDOF 4
ENDMDL
MODEL 2
REMARK VINA RESULT:      -4.7     12.942     13.903
REMARK  Name = min_compound95.pdb
REMARK  4 active torsions:
REMARK  status: ('A' for Active; 'I' for Inactive)
REMARK    1  A    between atoms: _4  and  _8
REMARK    2  A    between atoms: _9  and  _10
REMARK    3  A    between atoms: _10  and  _11
REMARK    4  A    between atoms: _11  and  _12
REMARK                            x       y       z     vdW  Elec       q    Type
REMARK                         _______ _______ _______ _____ _____    ______ ____
ROOT
ATOM      1 CL   UNL     1     -11.594   5.916 -17.361  0.00  0.00    -0.060 Cl
ATOM      2  C   UNL     1     -11.653   4.199 -17.220  0.00  0.00    +0.155 A 
ATOM      3  C   UNL     1     -10.936   3.535 -16.233  0.00  0.00    +0.102 A 
ATOM      4  C   UNL     1     -11.032   2.141 -16.308  0.00  0.00    +0.144 A 
ATOM      5  N   UNL     1     -10.246   1.388 -15.395  0.00  0.00    -0.325 N 
ATOM      6  H   UNL     1      -9.288   1.721 -15.499  0.00  0.00    +0.148 HD
ATOM      7  N   UNL     1     -11.850   1.516 -17.176  0.00  0.00    -0.219 NA
ATOM      8  C   UNL     1     -12.530   2.290 -18.033  0.00  0.00    +0.225 A 
ATOM      9  N   UNL     1     -12.469   3.619 -18.118  0.00  0.00    -0.222 NA
ENDROOT
BRANCH   3  10
ATOM     10  N   UNL     1      -9.999   4.155 -15.368  0.00  0.00    -0.353 N 
ATOM     11  H   UNL     1     -10.442   4.517 -14.525  0.00  0.00    +0.143 HD
ATOM     12  H   UNL     1      -9.243   3.503 -15.153  0.00  0.00    +0.143 HD
ENDBRANCH   3  10
BRANCH   5  13
ATOM     13  C   UNL     1     -10.364  -0.060 -15.554  0.00  0.00    +0.130 C 
BRANCH  13  14
ATOM     14  C   UNL     1      -9.297  -0.579 -16.526  0.00  0.00    +0.174 C 
BRANCH  14  15
ATOM     15  O   UNL     1      -9.857  -0.895 -17.796  0.00  0.00    -0.393 OA
ATOM     16  H   UNL     1      -9.292  -1.568 -18.213  0.00  0.00    +0.209 HD
ENDBRANCH  14  15
ENDBRANCH  13  14
ENDBRANCH   5  13
TORSDOF 4
ENDMDL
MODEL 3
REMARK VINA RESULT:      -4.7     13.562     15.141
REMARK  Name = min_compound95.pdb
REMARK  4 active torsions:
REMARK  status: ('A' for Active; 'I' for Inactive)
REMARK    1  A    between atoms: _4  and  _8
REMARK    2  A    between atoms: _9  and  _10
REMARK    3  A    between atoms: _10  and  _11
REMARK    4  A    between atoms: _11  and  _12
REMARK                            x       y       z     vdW  Elec       q    Type
REMARK                         _______ _______ _______ _____ _____    ______ ____
ROOT
ATOM      1 CL   UNL     1      -9.915   0.401 -15.272  0.00  0.00    -0.060 Cl
ATOM      2  C   UNL     1     -11.046   1.336 -16.177  0.00  0.00    +0.155 A 
ATOM      3  C   UNL     1     -11.514   0.899 -17.409  0.00  0.00    +0.102 A 
ATOM      4  C   UNL     1     -12.364   1.812 -18.044  0.00  0.00    +0.144 A 
ATOM      5  N   UNL     1     -12.804   1.482 -19.354  0.00  0.00    -0.325 N 
ATOM      6  H   UNL     1     -11.964   1.285 -19.898  0.00  0.00    +0.148 HD
ATOM      7  N   UNL     1     -12.787   2.943 -17.450  0.00  0.00    -0.219 NA
ATOM      8  C   UNL     1     -12.299   3.207 -16.230  0.00  0.00    +0.225 A 
ATOM      9  N   UNL     1     -11.426   2.463 -15.550  0.00  0.00    -0.222 NA
ENDROOT
BRANCH   3  10
ATOM     10  N   UNL     1     -11.019  -0.237 -18.099  0.00  0.00    -0.353 N 
ATOM     11  H   UNL     1     -10.095  -0.068 -18.494  0.00  0.00    +0.143 HD
ATOM     12  H   UNL     1     -11.028  -1.049 -17.480  0.00  0.00    +0.143 HD
ENDBRANCH   3  10
BRANCH   5  13
ATOM     13  C   UNL     1     -13.655   2.496 -19.973  0.00  0.00    +0.130 C 
BRANCH  13  14
ATOM     14  C   UNL     1     -14.022   2.084 -21.404  0.00  0.00    +0.174 C 
BRANCH  14  15
ATOM     15  O   UNL     1     -13.253   0.967 -21.840  0.00  0.00    -0.393 OA
ATOM     16  H   UNL     1     -13.157   1.029 -22.805  0.00  0.00    +0.209 HD
ENDBRANCH  14  15
ENDBRANCH  13  14
ENDBRANCH   5  13
TORSDOF 4
ENDMDL
MODEL 4
REMARK VINA RESULT:      -4.6     13.067     13.967
REMARK  Name = min_compound95.pdb
REMARK  4 active torsions:
REMARK  status: ('A' for Active; 'I' for Inactive)
REMARK    1  A    between atoms: _4  and  _8
REMARK    2  A    between atoms: _9  and  _10
REMARK    3  A    between atoms: _10  and  _11
REMARK    4  A    between atoms: _11  and  _12
REMARK                            x       y       z     vdW  Elec       q    Type
REMARK                         _______ _______ _______ _____ _____    ______ ____
ROOT
ATOM      1 CL   UNL     1     -14.769   3.977 -19.449  0.00  0.00    -0.060 Cl
ATOM      2  C   UNL     1     -13.929   3.063 -18.253  0.00  0.00    +0.155 A 
ATOM      3  C   UNL     1     -13.048   2.051 -18.611  0.00  0.00    +0.102 A 
ATOM      4  C   UNL     1     -12.512   1.359 -17.520  0.00  0.00    +0.144 A 
ATOM      5  N   UNL     1     -11.680   0.243 -17.807  0.00  0.00    -0.325 N 
ATOM      6  H   UNL     1     -12.216  -0.361 -18.430  0.00  0.00    +0.148 HD
ATOM      7  N   UNL     1     -12.732   1.731 -16.246  0.00  0.00    -0.219 NA
ATOM      8  C   UNL     1     -13.558   2.769 -16.051  0.00  0.00    +0.225 A 
ATOM      9  N   UNL     1     -14.193   3.462 -16.997  0.00  0.00    -0.222 NA
ENDROOT
BRANCH   3  10
ATOM     10  N   UNL     1     -12.867   1.576 -19.935  0.00  0.00    -0.353 N 
ATOM     11  H   UNL     1     -13.659   1.808 -20.533  0.00  0.00    +0.143 HD
ATOM     12  H   UNL     1     -11.987   1.929 -20.313  0.00  0.00    +0.143 HD
ENDBRANCH   3  10
BRANCH   5  13
ATOM     13  C   UNL     1     -11.187  -0.457 -16.623  0.00  0.00    +0.130 C 
BRANCH  13  14
ATOM     14  C   UNL     1      -9.803   0.071 -16.227  0.00  0.00    +0.174 C 
BRANCH  14  15
ATOM     15  O   UNL     1      -9.881   0.948 -15.107  0.00  0.00    -0.393 OA
ATOM     16  H   UNL     1     -10.778   1.322 -15.082  0.00  0.00    +0.209 HD
ENDBRANCH  14  15
ENDBRANCH  13  14
ENDBRANCH   5  13
TORSDOF 4
ENDMDL
MODEL 5
REMARK VINA RESULT:      -4.6     13.853     15.142
REMARK  Name = min_compound95.pdb
REMARK  4 active torsions:
REMARK  status: ('A' for Active; 'I' for Inactive)
REMARK    1  A    between atoms: _4  and  _8
REMARK    2  A    between atoms: _9  and  _10
REMARK    3  A    between atoms: _10  and  _11
REMARK    4  A    between atoms: _11  and  _12
REMARK                            x       y       z     vdW  Elec       q    Type
REMARK                         _______ _______ _______ _____ _____    ______ ____
ROOT
ATOM      1 CL   UNL     1     -10.019   0.577 -15.494  0.00  0.00    -0.060 Cl
ATOM      2  C   UNL     1     -10.949   1.562 -16.561  0.00  0.00    +0.155 A 
ATOM      3  C   UNL     1     -10.924   2.947 -16.463  0.00  0.00    +0.102 A 
ATOM      4  C   UNL     1     -11.794   3.590 -17.351  0.00  0.00    +0.144 A 
ATOM      5  N   UNL     1     -11.901   5.002 -17.242  0.00  0.00    -0.325 N 
ATOM      6  H   UNL     1     -12.122   5.199 -16.266  0.00  0.00    +0.148 HD
ATOM      7  N   UNL     1     -12.484   2.927 -18.297  0.00  0.00    -0.219 NA
ATOM      8  C   UNL     1     -12.363   1.592 -18.314  0.00  0.00    +0.225 A 
ATOM      9  N   UNL     1     -11.633   0.855 -17.477  0.00  0.00    -0.222 NA
ENDROOT
BRANCH   3  10
ATOM     10  N   UNL     1     -10.283   3.666 -15.423  0.00  0.00    -0.353 N 
ATOM     11  H   UNL     1     -10.622   4.625 -15.359  0.00  0.00    +0.143 HD
ATOM     12  H   UNL     1     -10.387   3.164 -14.540  0.00  0.00    +0.143 HD
ENDBRANCH   3  10
BRANCH   5  13
ATOM     13  C   UNL     1     -12.855   5.604 -18.172  0.00  0.00    +0.130 C 
BRANCH  13  14
ATOM     14  C   UNL     1     -12.768   7.134 -18.110  0.00  0.00    +0.174 C 
BRANCH  14  15
ATOM     15  O   UNL     1     -11.456   7.595 -18.419  0.00  0.00    -0.393 OA
ATOM     16  H   UNL     1     -11.521   8.532 -18.670  0.00  0.00    +0.209 HD
ENDBRANCH  14  15
ENDBRANCH  13  14
ENDBRANCH   5  13
TORSDOF 4
ENDMDL
MODEL 6
REMARK VINA RESULT:      -4.4     13.571     15.107
REMARK  Name = min_compound95.pdb
REMARK  4 active torsions:
REMARK  status: ('A' for Active; 'I' for Inactive)
REMARK    1  A    between atoms: _4  and  _8
REMARK    2  A    between atoms: _9  and  _10
REMARK    3  A    between atoms: _10  and  _11
REMARK    4  A    between atoms: _11  and  _12
REMARK                            x       y       z     vdW  Elec       q    Type
REMARK                         _______ _______ _______ _____ _____    ______ ____
ROOT
ATOM      1 CL   UNL     1     -10.876  -0.334 -17.107  0.00  0.00    -0.060 Cl
ATOM      2  C   UNL     1     -11.245   1.336 -16.894  0.00  0.00    +0.155 A 
ATOM      3  C   UNL     1     -12.032   2.019 -17.812  0.00  0.00    +0.102 A 
ATOM      4  C   UNL     1     -12.169   3.383 -17.531  0.00  0.00    +0.144 A 
ATOM      5  N   UNL     1     -12.876   4.171 -18.479  0.00  0.00    -0.325 N 
ATOM      6  H   UNL     1     -12.433   4.000 -19.382  0.00  0.00    +0.148 HD
ATOM      7  N   UNL     1     -11.692   3.943 -16.404  0.00  0.00    -0.219 NA
ATOM      8  C   UNL     1     -11.002   3.147 -15.575  0.00  0.00    +0.225 A 
ATOM      9  N   UNL     1     -10.734   1.854 -15.764  0.00  0.00    -0.222 NA
ENDROOT
BRANCH   3  10
ATOM     10  N   UNL     1     -12.470   1.483 -19.050  0.00  0.00    -0.353 N 
ATOM     11  H   UNL     1     -12.946   2.182 -19.618  0.00  0.00    +0.143 HD
ATOM     12  H   UNL     1     -11.681   1.062 -19.542  0.00  0.00    +0.143 HD
ENDBRANCH   3  10
BRANCH   5  13
ATOM     13  C   UNL     1     -12.948   5.592 -18.143  0.00  0.00    +0.130 C 
BRANCH  13  14
ATOM     14  C   UNL     1     -12.047   6.408 -19.078  0.00  0.00    +0.174 C 
BRANCH  14  15
ATOM     15  O   UNL     1     -11.526   7.561 -18.425  0.00  0.00    -0.393 OA
ATOM     16  H   UNL     1     -12.098   8.315 -18.648  0.00  0.00    +0.209 HD
ENDBRANCH  14  15
ENDBRANCH  13  14
ENDBRANCH   5  13
TORSDOF 4
ENDMDL
MODEL 7
REMARK VINA RESULT:      -4.3      2.485      2.600
REMARK  Name = min_compound95.pdb
REMARK  4 active torsions:
REMARK  status: ('A' for Active; 'I' for Inactive)
REMARK    1  A    between atoms: _4  and  _8
REMARK    2  A    between atoms: _9  and  _10
REMARK    3  A    between atoms: _10  and  _11
REMARK    4  A    between atoms: _11  and  _12
REMARK                            x       y       z     vdW  Elec       q    Type
REMARK                         _______ _______ _______ _____ _____    ______ ____
ROOT
ATOM      1 CL   UNL     1     -14.317   1.030  -7.107  0.00  0.00    -0.060 Cl
ATOM      2  C   UNL     1     -15.127   0.588  -5.650  0.00  0.00    +0.155 A 
ATOM      3  C   UNL     1     -15.087  -0.716  -5.176  0.00  0.00    +0.102 A 
ATOM      4  C   UNL     1     -15.860  -0.921  -4.027  0.00  0.00    +0.144 A 
ATOM      5  N   UNL     1     -15.952  -2.252  -3.538  0.00  0.00    -0.325 N 
ATOM      6  H   UNL     1     -16.258  -2.825  -4.324  0.00  0.00    +0.148 HD
ATOM      7  N   UNL     1     -16.472   0.086  -3.376  0.00  0.00    -0.219 NA
ATOM      8  C   UNL     1     -16.373   1.308  -3.918  0.00  0.00    +0.225 A 
ATOM      9  N   UNL     1     -15.736   1.622  -5.046  0.00  0.00    -0.222 NA
ENDROOT
BRANCH   3  10
ATOM     10  N   UNL     1     -14.531  -1.812  -5.884  0.00  0.00    -0.353 N 
ATOM     11  H   UNL     1     -14.694  -1.737  -6.887  0.00  0.00    +0.143 HD
ATOM     12  H   UNL     1     -13.538  -1.900  -5.663  0.00  0.00    +0.143 HD
ENDBRANCH   3  10
BRANCH   5  13
ATOM     13  C   UNL     1     -16.805  -2.400  -2.361  0.00  0.00    +0.130 C 
BRANCH  13  14
ATOM     14  C   UNL     1     -17.936  -3.397  -2.642  0.00  0.00    +0.174 C 
BRANCH  14  15
ATOM     15  O   UNL     1     -18.606  -3.096  -3.862  0.00  0.00    -0.393 OA
ATOM     16  H   UNL     1     -19.434  -3.606  -3.882  0.00  0.00    +0.209 HD
ENDBRANCH  14  15
ENDBRANCH  13  14
ENDBRANCH   5  13
TORSDOF 4
ENDMDL
MODEL 8
REMARK VINA RESULT:      -4.1      3.372      4.417
REMARK  Name = min_compound95.pdb
REMARK  4 active torsions:
REMARK  status: ('A' for Active; 'I' for Inactive)
REMARK    1  A    between atoms: _4  and  _8
REMARK    2  A    between atoms: _9  and  _10
REMARK    3  A    between atoms: _10  and  _11
REMARK    4  A    between atoms: _11  and  _12
REMARK                            x       y       z     vdW  Elec       q    Type
REMARK                         _______ _______ _______ _____ _____    ______ ____
ROOT
ATOM      1 CL   UNL     1     -13.308   2.503  -3.536  0.00  0.00    -0.060 Cl
ATOM      2  C   UNL     1     -14.296   1.456  -4.485  0.00  0.00    +0.155 A 
ATOM      3  C   UNL     1     -15.621   1.771  -4.755  0.00  0.00    +0.102 A 
ATOM      4  C   UNL     1     -16.301   0.779  -5.471  0.00  0.00    +0.144 A 
ATOM      5  N   UNL     1     -17.688   0.982  -5.699  0.00  0.00    -0.325 N 
ATOM      6  H   UNL     1     -18.106   1.162  -4.786  0.00  0.00    +0.148 HD
ATOM      7  N   UNL     1     -15.685  -0.312  -5.961  0.00  0.00    -0.219 NA
ATOM      8  C   UNL     1     -14.384  -0.456  -5.673  0.00  0.00    +0.225 A 
ATOM      9  N   UNL     1     -13.641   0.373  -4.938  0.00  0.00    -0.222 NA
ENDROOT
BRANCH   3  10
ATOM     10  N   UNL     1     -16.321   2.861  -4.178  0.00  0.00    -0.353 N 
ATOM     11  H   UNL     1     -16.126   3.736  -4.663  0.00  0.00    +0.143 HD
ATOM     12  H   UNL     1     -17.320   2.654  -4.149  0.00  0.00    +0.143 HD
ENDBRANCH   3  10
BRANCH   5  13
ATOM     13  C   UNL     1     -18.344  -0.109  -6.417  0.00  0.00    +0.130 C 
BRANCH  13  14
ATOM     14  C   UNL     1     -19.090  -1.022  -5.436  0.00  0.00    +0.174 C 
BRANCH  14  15
ATOM     15  O   UNL     1     -18.262  -2.088  -4.981  0.00  0.00    -0.393 OA
ATOM     16  H   UNL     1     -18.493  -2.884  -5.489  0.00  0.00    +0.209 HD
ENDBRANCH  14  15
ENDBRANCH  13  14
ENDBRANCH   5  13
TORSDOF 4
ENDMDL
MODEL 9
REMARK VINA RESULT:      -4.0      1.890      2.146
REMARK  Name = min_compound95.pdb
REMARK  4 active torsions:
REMARK  status: ('A' for Active; 'I' for Inactive)
REMARK    1  A    between atoms: _4  and  _8
REMARK    2  A    between atoms: _9  and  _10
REMARK    3  A    between atoms: _10  and  _11
REMARK    4  A    between atoms: _11  and  _12
REMARK                            x       y       z     vdW  Elec       q    Type
REMARK                         _______ _______ _______ _____ _____    ______ ____
ROOT
ATOM      1 CL   UNL     1     -16.998   0.788  -8.101  0.00  0.00    -0.060 Cl
ATOM      2  C   UNL     1     -15.902   0.260  -6.881  0.00  0.00    +0.155 A 
ATOM      3  C   UNL     1     -16.251  -0.747  -5.990  0.00  0.00    +0.102 A 
ATOM      4  C   UNL     1     -15.278  -0.999  -5.016  0.00  0.00    +0.144 A 
ATOM      5  N   UNL     1     -15.603  -1.945  -4.007  0.00  0.00    -0.325 N 
ATOM      6  H   UNL     1     -16.490  -1.642  -3.605  0.00  0.00    +0.148 HD
ATOM      7  N   UNL     1     -14.068  -0.411  -5.031  0.00  0.00    -0.219 NA
ATOM      8  C   UNL     1     -13.847   0.500  -5.989  0.00  0.00    +0.225 A 
ATOM      9  N   UNL     1     -14.714   0.888  -6.925  0.00  0.00    -0.222 NA
ENDROOT
BRANCH   3  10
ATOM     10  N   UNL     1     -17.545  -1.318  -5.891  0.00  0.00    -0.353 N 
ATOM     11  H   UNL     1     -18.256  -0.615  -5.694  0.00  0.00    +0.143 HD
ATOM     12  H   UNL     1     -17.755  -1.847  -6.739  0.00  0.00    +0.143 HD
ENDBRANCH   3  10
BRANCH   5  13
ATOM     13  C   UNL     1     -14.559  -2.132  -3.001  0.00  0.00    +0.130 C 
BRANCH  13  14
ATOM     14  C   UNL     1     -15.125  -1.899  -1.595  0.00  0.00    +0.174 C 
BRANCH  14  15
ATOM     15  O   UNL     1     -14.485  -2.730  -0.631  0.00  0.00    -0.393 OA
ATOM     16  H   UNL     1     -14.013  -2.154  -0.007  0.00  0.00    +0.209 HD
ENDBRANCH  14  15
ENDBRANCH  13  14
ENDBRANCH   5  13
TORSDOF 4
ENDMDL
