MODEL 1
REMARK VINA RESULT:      -6.9      0.000      0.000
REMARK  Name = min_compound973.pdb
REMARK  5 active torsions:
REMARK  status: ('A' for Active; 'I' for Inactive)
REMARK    1  A    between atoms: _1  and  _2
REMARK    2  A    between atoms: _1  and  _12
REMARK    3  A    between atoms: _2  and  _13
REMARK    4  A    between atoms: _11  and  _19
REMARK    5  A    between atoms: _18  and  _20
REMARK                            x       y       z     vdW  Elec       q    Type
REMARK                         _______ _______ _______ _____ _____    ______ ____
ROOT
ATOM      1  C   UNL     1     -12.695   5.557 -17.624  0.00  0.00    +0.115 A 
ATOM      2  C   UNL     1     -12.715   6.945 -17.871  0.00  0.00    +0.141 A 
ATOM      3  C   UNL     1     -13.831   7.730 -17.574  0.00  0.00    +0.049 A 
ATOM      4  C   UNL     1     -14.983   7.153 -17.026  0.00  0.00    +0.033 A 
ATOM      5  C   UNL     1     -14.953   5.774 -16.809  0.00  0.00    +0.088 A 
ATOM      6  N   UNL     1     -15.869   4.890 -16.306  0.00  0.00    -0.257 N 
ATOM      7  N   UNL     1     -15.398   3.635 -16.288  0.00  0.00    -0.067 NA
ATOM      8  N   UNL     1     -14.160   3.666 -16.768  0.00  0.00    -0.128 NA
ATOM      9  H   UNL     1     -16.805   5.065 -15.967  0.00  0.00    +0.191 HD
ATOM     10  C   UNL     1     -13.854   4.965 -17.094  0.00  0.00    +0.138 A 
ENDROOT
BRANCH   1  11
ATOM     11  N   UNL     1     -11.574   4.766 -17.915  0.00  0.00    -0.261 N 
ATOM     12  H   UNL     1     -11.337   4.420 -18.806  0.00  0.00    +0.170 HD
BRANCH  11  13
ATOM     13  N   UNL     1     -10.922   4.569 -16.866  0.00  0.00    -0.266 N 
ATOM     14  H   UNL     1     -10.646   5.274 -16.236  0.00  0.00    +0.170 HD
BRANCH  13  15
ATOM     15  C   UNL     1     -10.637   3.200 -16.712  0.00  0.00    +0.044 A 
ATOM     16  C   UNL     1     -10.099   2.404 -17.727  0.00  0.00    +0.025 A 
ATOM     17  C   UNL     1      -9.786   1.061 -17.484  0.00  0.00    +0.005 A 
ATOM     18  C   UNL     1     -10.025   0.492 -16.226  0.00  0.00    -0.050 A 
ATOM     19  C   UNL     1      -9.622  -0.922 -15.930  0.00  0.00    +0.044 C 
ATOM     20  C   UNL     1     -10.583   1.283 -15.217  0.00  0.00    +0.005 A 
ATOM     21  C   UNL     1     -10.893   2.621 -15.464  0.00  0.00    +0.025 A 
ENDBRANCH  13  15
ENDBRANCH  11  13
ENDBRANCH   1  11
BRANCH   2  22
ATOM     22  O   UNL     1     -11.599   7.534 -18.411  0.00  0.00    -0.505 OA
ATOM     23  H   UNL     1     -11.294   8.251 -17.833  0.00  0.00    +0.292 HD
ENDBRANCH   2  22
TORSDOF 4
ENDMDL
MODEL 2
REMARK VINA RESULT:      -6.8      3.471      5.908
REMARK  Name = min_compound973.pdb
REMARK  5 active torsions:
REMARK  status: ('A' for Active; 'I' for Inactive)
REMARK    1  A    between atoms: _1  and  _2
REMARK    2  A    between atoms: _1  and  _12
REMARK    3  A    between atoms: _2  and  _13
REMARK    4  A    between atoms: _11  and  _19
REMARK    5  A    between atoms: _18  and  _20
REMARK                            x       y       z     vdW  Elec       q    Type
REMARK                         _______ _______ _______ _____ _____    ______ ____
ROOT
ATOM      1  C   UNL     1     -12.532   2.573 -16.774  0.00  0.00    +0.115 A 
ATOM      2  C   UNL     1     -11.392   3.335 -17.101  0.00  0.00    +0.141 A 
ATOM      3  C   UNL     1     -10.146   2.743 -17.311  0.00  0.00    +0.049 A 
ATOM      4  C   UNL     1      -9.985   1.358 -17.191  0.00  0.00    +0.033 A 
ATOM      5  C   UNL     1     -11.121   0.620 -16.845  0.00  0.00    +0.088 A 
ATOM      6  N   UNL     1     -11.337  -0.715 -16.639  0.00  0.00    -0.257 N 
ATOM      7  N   UNL     1     -12.610  -0.972 -16.310  0.00  0.00    -0.067 NA
ATOM      8  N   UNL     1     -13.262   0.184 -16.302  0.00  0.00    -0.128 NA
ATOM      9  H   UNL     1     -10.684  -1.485 -16.703  0.00  0.00    +0.191 HD
ATOM     10  C   UNL     1     -12.377   1.183 -16.630  0.00  0.00    +0.138 A 
ENDROOT
BRANCH   1  11
ATOM     11  N   UNL     1     -13.788   3.163 -16.567  0.00  0.00    -0.261 N 
ATOM     12  H   UNL     1     -14.600   2.971 -17.089  0.00  0.00    +0.170 HD
BRANCH  11  13
ATOM     13  N   UNL     1     -13.714   3.972 -15.615  0.00  0.00    -0.266 N 
ATOM     14  H   UNL     1     -13.010   4.653 -15.511  0.00  0.00    +0.170 HD
BRANCH  13  15
ATOM     15  C   UNL     1     -14.776   3.773 -14.715  0.00  0.00    +0.044 A 
ATOM     16  C   UNL     1     -15.762   2.797 -14.887  0.00  0.00    +0.025 A 
ATOM     17  C   UNL     1     -16.756   2.616 -13.918  0.00  0.00    +0.005 A 
ATOM     18  C   UNL     1     -16.789   3.424 -12.774  0.00  0.00    -0.050 A 
ATOM     19  C   UNL     1     -17.802   3.189 -11.693  0.00  0.00    +0.044 C 
ATOM     20  C   UNL     1     -15.815   4.414 -12.612  0.00  0.00    +0.005 A 
ATOM     21  C   UNL     1     -14.826   4.590 -13.580  0.00  0.00    +0.025 A 
ENDBRANCH  13  15
ENDBRANCH  11  13
ENDBRANCH   1  11
BRANCH   2  22
ATOM     22  O   UNL     1     -11.524   4.696 -17.221  0.00  0.00    -0.505 OA
ATOM     23  H   UNL     1     -10.654   5.117 -17.146  0.00  0.00    +0.292 HD
ENDBRANCH   2  22
TORSDOF 4
ENDMDL
MODEL 3
REMARK VINA RESULT:      -6.7     14.888     16.936
REMARK  Name = min_compound973.pdb
REMARK  5 active torsions:
REMARK  status: ('A' for Active; 'I' for Inactive)
REMARK    1  A    between atoms: _1  and  _2
REMARK    2  A    between atoms: _1  and  _12
REMARK    3  A    between atoms: _2  and  _13
REMARK    4  A    between atoms: _11  and  _19
REMARK    5  A    between atoms: _18  and  _20
REMARK                            x       y       z     vdW  Elec       q    Type
REMARK                         _______ _______ _______ _____ _____    ______ ____
ROOT
ATOM      1  C   UNL     1     -14.498  -3.393  -1.749  0.00  0.00    +0.115 A 
ATOM      2  C   UNL     1     -13.379  -4.161  -1.366  0.00  0.00    +0.141 A 
ATOM      3  C   UNL     1     -13.417  -5.556  -1.341  0.00  0.00    +0.049 A 
ATOM      4  C   UNL     1     -14.585  -6.244  -1.690  0.00  0.00    +0.033 A 
ATOM      5  C   UNL     1     -15.690  -5.467  -2.046  0.00  0.00    +0.088 A 
ATOM      6  N   UNL     1     -16.964  -5.782  -2.430  0.00  0.00    -0.257 N 
ATOM      7  N   UNL     1     -17.701  -4.688  -2.672  0.00  0.00    -0.067 NA
ATOM      8  N   UNL     1     -16.925  -3.631  -2.463  0.00  0.00    -0.128 NA
ATOM      9  H   UNL     1     -17.391  -6.692  -2.546  0.00  0.00    +0.191 HD
ATOM     10  C   UNL     1     -15.682  -4.074  -2.080  0.00  0.00    +0.138 A 
ENDROOT
BRANCH   1  11
ATOM     11  N   UNL     1     -14.463  -1.991  -1.780  0.00  0.00    -0.261 N 
ATOM     12  H   UNL     1     -14.674  -1.400  -1.022  0.00  0.00    +0.170 HD
BRANCH  11  13
ATOM     13  N   UNL     1     -14.121  -1.611  -2.922  0.00  0.00    -0.266 N 
ATOM     14  H   UNL     1     -13.595  -2.147  -3.558  0.00  0.00    +0.170 HD
BRANCH  13  15
ATOM     15  C   UNL     1     -14.593  -0.309  -3.170  0.00  0.00    +0.044 A 
ATOM     16  C   UNL     1     -13.756   0.804  -3.304  0.00  0.00    +0.025 A 
ATOM     17  C   UNL     1     -14.293   2.060  -3.610  0.00  0.00    +0.005 A 
ATOM     18  C   UNL     1     -15.675   2.224  -3.766  0.00  0.00    -0.050 A 
ATOM     19  C   UNL     1     -16.254   3.548  -4.169  0.00  0.00    +0.044 C 
ATOM     20  C   UNL     1     -16.513   1.116  -3.611  0.00  0.00    +0.005 A 
ATOM     21  C   UNL     1     -15.974  -0.134  -3.307  0.00  0.00    +0.025 A 
ENDBRANCH  13  15
ENDBRANCH  11  13
ENDBRANCH   1  11
BRANCH   2  22
ATOM     22  O   UNL     1     -12.223  -3.509  -1.016  0.00  0.00    -0.505 OA
ATOM     23  H   UNL     1     -12.126  -3.508  -0.052  0.00  0.00    +0.292 HD
ENDBRANCH   2  22
TORSDOF 4
ENDMDL
MODEL 4
REMARK VINA RESULT:      -6.7      2.008      2.512
REMARK  Name = min_compound973.pdb
REMARK  5 active torsions:
REMARK  status: ('A' for Active; 'I' for Inactive)
REMARK    1  A    between atoms: _1  and  _2
REMARK    2  A    between atoms: _1  and  _12
REMARK    3  A    between atoms: _2  and  _13
REMARK    4  A    between atoms: _11  and  _19
REMARK    5  A    between atoms: _18  and  _20
REMARK                            x       y       z     vdW  Elec       q    Type
REMARK                         _______ _______ _______ _____ _____    ______ ____
ROOT
ATOM      1  C   UNL     1     -12.466   5.375 -18.525  0.00  0.00    +0.115 A 
ATOM      2  C   UNL     1     -12.058   6.590 -19.113  0.00  0.00    +0.141 A 
ATOM      3  C   UNL     1     -12.273   6.862 -20.465  0.00  0.00    +0.049 A 
ATOM      4  C   UNL     1     -12.898   5.921 -21.292  0.00  0.00    +0.033 A 
ATOM      5  C   UNL     1     -13.276   4.715 -20.697  0.00  0.00    +0.088 A 
ATOM      6  N   UNL     1     -13.889   3.591 -21.180  0.00  0.00    -0.257 N 
ATOM      7  N   UNL     1     -14.049   2.659 -20.230  0.00  0.00    -0.067 NA
ATOM      8  N   UNL     1     -13.555   3.152 -19.100  0.00  0.00    -0.128 NA
ATOM      9  H   UNL     1     -14.215   3.394 -22.117  0.00  0.00    +0.191 HD
ATOM     10  C   UNL     1     -13.075   4.415 -19.351  0.00  0.00    +0.138 A 
ENDROOT
BRANCH   1  11
ATOM     11  N   UNL     1     -12.257   5.099 -17.166  0.00  0.00    -0.261 N 
ATOM     12  H   UNL     1     -12.961   5.056 -16.479  0.00  0.00    +0.170 HD
BRANCH  11  13
ATOM     13  N   UNL     1     -11.036   4.917 -16.963  0.00  0.00    -0.266 N 
ATOM     14  H   UNL     1     -10.357   5.631 -16.950  0.00  0.00    +0.170 HD
BRANCH  13  15
ATOM     15  C   UNL     1     -10.768   3.552 -16.756  0.00  0.00    +0.044 A 
ATOM     16  C   UNL     1     -10.151   2.733 -17.707  0.00  0.00    +0.025 A 
ATOM     17  C   UNL     1      -9.861   1.397 -17.409  0.00  0.00    +0.005 A 
ATOM     18  C   UNL     1     -10.203   0.856 -16.163  0.00  0.00    -0.050 A 
ATOM     19  C   UNL     1      -9.828  -0.552 -15.804  0.00  0.00    +0.044 C 
ATOM     20  C   UNL     1     -10.839   1.669 -15.219  0.00  0.00    +0.005 A 
ATOM     21  C   UNL     1     -11.125   3.001 -15.520  0.00  0.00    +0.025 A 
ENDBRANCH  13  15
ENDBRANCH  11  13
ENDBRANCH   1  11
BRANCH   2  22
ATOM     22  O   UNL     1     -11.440   7.527 -18.323  0.00  0.00    -0.505 OA
ATOM     23  H   UNL     1     -11.214   7.136 -17.466  0.00  0.00    +0.292 HD
ENDBRANCH   2  22
TORSDOF 4
ENDMDL
MODEL 5
REMARK VINA RESULT:      -6.7      1.895      2.881
REMARK  Name = min_compound973.pdb
REMARK  5 active torsions:
REMARK  status: ('A' for Active; 'I' for Inactive)
REMARK    1  A    between atoms: _1  and  _2
REMARK    2  A    between atoms: _1  and  _12
REMARK    3  A    between atoms: _2  and  _13
REMARK    4  A    between atoms: _11  and  _19
REMARK    5  A    between atoms: _18  and  _20
REMARK                            x       y       z     vdW  Elec       q    Type
REMARK                         _______ _______ _______ _____ _____    ______ ____
ROOT
ATOM      1  C   UNL     1     -14.120   5.097 -16.616  0.00  0.00    +0.115 A 
ATOM      2  C   UNL     1     -15.026   5.956 -15.961  0.00  0.00    +0.141 A 
ATOM      3  C   UNL     1     -15.111   7.313 -16.275  0.00  0.00    +0.049 A 
ATOM      4  C   UNL     1     -14.281   7.873 -17.253  0.00  0.00    +0.033 A 
ATOM      5  C   UNL     1     -13.375   7.011 -17.876  0.00  0.00    +0.088 A 
ATOM      6  N   UNL     1     -12.430   7.198 -18.848  0.00  0.00    -0.257 N 
ATOM      7  N   UNL     1     -11.775   6.065 -19.136  0.00  0.00    -0.067 NA
ATOM      8  N   UNL     1     -12.280   5.106 -18.369  0.00  0.00    -0.128 NA
ATOM      9  H   UNL     1     -12.183   8.044 -19.345  0.00  0.00    +0.191 HD
ATOM     10  C   UNL     1     -13.267   5.653 -17.585  0.00  0.00    +0.138 A 
ENDROOT
BRANCH   1  11
ATOM     11  N   UNL     1     -14.036   3.731 -16.308  0.00  0.00    -0.261 N 
ATOM     12  H   UNL     1     -14.625   3.029 -16.667  0.00  0.00    +0.170 HD
BRANCH  11  13
ATOM     13  N   UNL     1     -13.094   3.545 -15.506  0.00  0.00    -0.266 N 
ATOM     14  H   UNL     1     -12.891   4.123 -14.735  0.00  0.00    +0.170 HD
BRANCH  13  15
ATOM     15  C   UNL     1     -12.365   2.395 -15.859  0.00  0.00    +0.044 A 
ATOM     16  C   UNL     1     -12.895   1.347 -16.618  0.00  0.00    +0.025 A 
ATOM     17  C   UNL     1     -12.091   0.260 -16.982  0.00  0.00    +0.005 A 
ATOM     18  C   UNL     1     -10.753   0.197 -16.576  0.00  0.00    -0.050 A 
ATOM     19  C   UNL     1      -9.862  -0.923 -17.024  0.00  0.00    +0.044 C 
ATOM     20  C   UNL     1     -10.228   1.235 -15.799  0.00  0.00    +0.005 A 
ATOM     21  C   UNL     1     -11.032   2.317 -15.439  0.00  0.00    +0.025 A 
ENDBRANCH  13  15
ENDBRANCH  11  13
ENDBRANCH   1  11
BRANCH   2  22
ATOM     22  O   UNL     1     -15.849   5.432 -14.996  0.00  0.00    -0.505 OA
ATOM     23  H   UNL     1     -15.790   5.967 -14.189  0.00  0.00    +0.292 HD
ENDBRANCH   2  22
TORSDOF 4
ENDMDL
MODEL 6
REMARK VINA RESULT:      -6.6      2.990      3.752
REMARK  Name = min_compound973.pdb
REMARK  5 active torsions:
REMARK  status: ('A' for Active; 'I' for Inactive)
REMARK    1  A    between atoms: _1  and  _2
REMARK    2  A    between atoms: _1  and  _12
REMARK    3  A    between atoms: _2  and  _13
REMARK    4  A    between atoms: _11  and  _19
REMARK    5  A    between atoms: _18  and  _20
REMARK                            x       y       z     vdW  Elec       q    Type
REMARK                         _______ _______ _______ _____ _____    ______ ____
ROOT
ATOM      1  C   UNL     1     -15.237   3.559 -15.728  0.00  0.00    +0.115 A 
ATOM      2  C   UNL     1     -15.834   2.474 -15.053  0.00  0.00    +0.141 A 
ATOM      3  C   UNL     1     -16.686   2.664 -13.964  0.00  0.00    +0.049 A 
ATOM      4  C   UNL     1     -16.969   3.952 -13.495  0.00  0.00    +0.033 A 
ATOM      5  C   UNL     1     -16.351   5.013 -14.162  0.00  0.00    +0.088 A 
ATOM      6  N   UNL     1     -16.387   6.369 -13.986  0.00  0.00    -0.257 N 
ATOM      7  N   UNL     1     -15.614   7.011 -14.874  0.00  0.00    -0.067 NA
ATOM      8  N   UNL     1     -15.063   6.093 -15.660  0.00  0.00    -0.128 NA
ATOM      9  H   UNL     1     -16.898   6.912 -13.303  0.00  0.00    +0.191 HD
ATOM     10  C   UNL     1     -15.497   4.855 -15.251  0.00  0.00    +0.138 A 
ENDROOT
BRANCH   1  11
ATOM     11  N   UNL     1     -14.384   3.373 -16.826  0.00  0.00    -0.261 N 
ATOM     12  H   UNL     1     -14.662   3.051 -17.714  0.00  0.00    +0.170 HD
BRANCH  11  13
ATOM     13  N   UNL     1     -13.216   3.682 -16.500  0.00  0.00    -0.266 N 
ATOM     14  H   UNL     1     -12.914   4.596 -16.297  0.00  0.00    +0.170 HD
BRANCH  13  15
ATOM     15  C   UNL     1     -12.395   2.540 -16.467  0.00  0.00    +0.044 A 
ATOM     16  C   UNL     1     -12.562   1.443 -17.319  0.00  0.00    +0.025 A 
ATOM     17  C   UNL     1     -11.669   0.366 -17.269  0.00  0.00    +0.005 A 
ATOM     18  C   UNL     1     -10.610   0.362 -16.352  0.00  0.00    -0.050 A 
ATOM     19  C   UNL     1      -9.604  -0.749 -16.341  0.00  0.00    +0.044 C 
ATOM     20  C   UNL     1     -10.456   1.449 -15.485  0.00  0.00    +0.005 A 
ATOM     21  C   UNL     1     -11.348   2.521 -15.539  0.00  0.00    +0.025 A 
ENDBRANCH  13  15
ENDBRANCH  11  13
ENDBRANCH   1  11
BRANCH   2  22
ATOM     22  O   UNL     1     -15.570   1.201 -15.492  0.00  0.00    -0.505 OA
ATOM     23  H   UNL     1     -16.353   0.839 -15.936  0.00  0.00    +0.292 HD
ENDBRANCH   2  22
TORSDOF 4
ENDMDL
MODEL 7
REMARK VINA RESULT:      -6.5      3.566      6.408
REMARK  Name = min_compound973.pdb
REMARK  5 active torsions:
REMARK  status: ('A' for Active; 'I' for Inactive)
REMARK    1  A    between atoms: _1  and  _2
REMARK    2  A    between atoms: _1  and  _12
REMARK    3  A    between atoms: _2  and  _13
REMARK    4  A    between atoms: _11  and  _19
REMARK    5  A    between atoms: _18  and  _20
REMARK                            x       y       z     vdW  Elec       q    Type
REMARK                         _______ _______ _______ _____ _____    ______ ____
ROOT
ATOM      1  C   UNL     1     -12.608   1.419 -16.433  0.00  0.00    +0.115 A 
ATOM      2  C   UNL     1     -11.985   0.168 -16.623  0.00  0.00    +0.141 A 
ATOM      3  C   UNL     1     -10.651   0.063 -17.020  0.00  0.00    +0.049 A 
ATOM      4  C   UNL     1      -9.884   1.210 -17.255  0.00  0.00    +0.033 A 
ATOM      5  C   UNL     1     -10.523   2.440 -17.082  0.00  0.00    +0.088 A 
ATOM      6  N   UNL     1     -10.103   3.735 -17.222  0.00  0.00    -0.257 N 
ATOM      7  N   UNL     1     -11.081   4.611 -16.953  0.00  0.00    -0.067 NA
ATOM      8  N   UNL     1     -12.162   3.914 -16.621  0.00  0.00    -0.128 NA
ATOM      9  H   UNL     1      -9.194   4.086 -17.489  0.00  0.00    +0.191 HD
ATOM     10  C   UNL     1     -11.852   2.577 -16.687  0.00  0.00    +0.138 A 
ENDROOT
BRANCH   1  11
ATOM     11  N   UNL     1     -13.946   1.530 -16.029  0.00  0.00    -0.261 N 
ATOM     12  H   UNL     1     -14.521   0.781 -15.752  0.00  0.00    +0.170 HD
BRANCH  11  13
ATOM     13  N   UNL     1     -14.295   2.731 -16.077  0.00  0.00    -0.266 N 
ATOM     14  H   UNL     1     -14.024   3.366 -16.778  0.00  0.00    +0.170 HD
BRANCH  13  15
ATOM     15  C   UNL     1     -15.129   3.046 -14.988  0.00  0.00    +0.044 A 
ATOM     16  C   UNL     1     -16.372   2.445 -14.768  0.00  0.00    +0.025 A 
ATOM     17  C   UNL     1     -17.121   2.765 -13.630  0.00  0.00    +0.005 A 
ATOM     18  C   UNL     1     -16.646   3.706 -12.707  0.00  0.00    -0.050 A 
ATOM     19  C   UNL     1     -17.403   4.000 -11.447  0.00  0.00    +0.044 C 
ATOM     20  C   UNL     1     -15.413   4.323 -12.938  0.00  0.00    +0.005 A 
ATOM     21  C   UNL     1     -14.669   4.000 -14.074  0.00  0.00    +0.025 A 
ENDBRANCH  13  15
ENDBRANCH  11  13
ENDBRANCH   1  11
BRANCH   2  22
ATOM     22  O   UNL     1     -12.718  -0.971 -16.402  0.00  0.00    -0.505 OA
ATOM     23  H   UNL     1     -12.180  -1.617 -15.919  0.00  0.00    +0.292 HD
ENDBRANCH   2  22
TORSDOF 4
ENDMDL
MODEL 8
REMARK VINA RESULT:      -6.5      1.625      2.373
REMARK  Name = min_compound973.pdb
REMARK  5 active torsions:
REMARK  status: ('A' for Active; 'I' for Inactive)
REMARK    1  A    between atoms: _1  and  _2
REMARK    2  A    between atoms: _1  and  _12
REMARK    3  A    between atoms: _2  and  _13
REMARK    4  A    between atoms: _11  and  _19
REMARK    5  A    between atoms: _18  and  _20
REMARK                            x       y       z     vdW  Elec       q    Type
REMARK                         _______ _______ _______ _____ _____    ______ ____
ROOT
ATOM      1  C   UNL     1     -14.024   4.844 -17.225  0.00  0.00    +0.115 A 
ATOM      2  C   UNL     1     -13.289   5.261 -18.353  0.00  0.00    +0.141 A 
ATOM      3  C   UNL     1     -13.123   6.612 -18.665  0.00  0.00    +0.049 A 
ATOM      4  C   UNL     1     -13.697   7.605 -17.863  0.00  0.00    +0.033 A 
ATOM      5  C   UNL     1     -14.440   7.172 -16.762  0.00  0.00    +0.088 A 
ATOM      6  N   UNL     1     -15.130   7.837 -15.785  0.00  0.00    -0.257 N 
ATOM      7  N   UNL     1     -15.710   6.995 -14.918  0.00  0.00    -0.067 NA
ATOM      8  N   UNL     1     -15.405   5.759 -15.297  0.00  0.00    -0.128 NA
ATOM      9  H   UNL     1     -15.248   8.832 -15.650  0.00  0.00    +0.191 HD
ATOM     10  C   UNL     1     -14.623   5.832 -16.425  0.00  0.00    +0.138 A 
ENDROOT
BRANCH   1  11
ATOM     11  N   UNL     1     -14.190   3.488 -16.905  0.00  0.00    -0.261 N 
ATOM     12  H   UNL     1     -14.672   2.828 -17.454  0.00  0.00    +0.170 HD
BRANCH  11  13
ATOM     13  N   UNL     1     -13.629   3.249 -15.812  0.00  0.00    -0.266 N 
ATOM     14  H   UNL     1     -13.878   3.659 -14.953  0.00  0.00    +0.170 HD
BRANCH  13  15
ATOM     15  C   UNL     1     -12.594   2.312 -15.983  0.00  0.00    +0.044 A 
ATOM     16  C   UNL     1     -11.280   2.526 -15.556  0.00  0.00    +0.025 A 
ATOM     17  C   UNL     1     -10.314   1.524 -15.706  0.00  0.00    +0.005 A 
ATOM     18  C   UNL     1     -10.645   0.301 -16.304  0.00  0.00    -0.050 A 
ATOM     19  C   UNL     1      -9.640  -0.807 -16.401  0.00  0.00    +0.044 C 
ATOM     20  C   UNL     1     -11.954   0.095 -16.751  0.00  0.00    +0.005 A 
ATOM     21  C   UNL     1     -12.914   1.096 -16.598  0.00  0.00    +0.025 A 
ENDBRANCH  13  15
ENDBRANCH  11  13
ENDBRANCH   1  11
BRANCH   2  22
ATOM     22  O   UNL     1     -12.719   4.306 -19.157  0.00  0.00    -0.505 OA
ATOM     23  H   UNL     1     -12.169   4.732 -19.833  0.00  0.00    +0.292 HD
ENDBRANCH   2  22
TORSDOF 4
ENDMDL
MODEL 9
REMARK VINA RESULT:      -6.4     13.260     14.956
REMARK  Name = min_compound973.pdb
REMARK  5 active torsions:
REMARK  status: ('A' for Active; 'I' for Inactive)
REMARK    1  A    between atoms: _1  and  _2
REMARK    2  A    between atoms: _1  and  _12
REMARK    3  A    between atoms: _2  and  _13
REMARK    4  A    between atoms: _11  and  _19
REMARK    5  A    between atoms: _18  and  _20
REMARK                            x       y       z     vdW  Elec       q    Type
REMARK                         _______ _______ _______ _____ _____    ______ ____
ROOT
ATOM      1  C   UNL     1     -15.178  -1.726  -3.228  0.00  0.00    +0.115 A 
ATOM      2  C   UNL     1     -16.207  -0.865  -2.794  0.00  0.00    +0.141 A 
ATOM      3  C   UNL     1     -17.074  -1.218  -1.759  0.00  0.00    +0.049 A 
ATOM      4  C   UNL     1     -16.954  -2.457  -1.119  0.00  0.00    +0.033 A 
ATOM      5  C   UNL     1     -15.944  -3.306  -1.576  0.00  0.00    +0.088 A 
ATOM      6  N   UNL     1     -15.542  -4.560  -1.205  0.00  0.00    -0.257 N 
ATOM      7  N   UNL     1     -14.511  -4.996  -1.942  0.00  0.00    -0.067 NA
ATOM      8  N   UNL     1     -14.204  -4.036  -2.807  0.00  0.00    -0.128 NA
ATOM      9  H   UNL     1     -15.913  -5.162  -0.482  0.00  0.00    +0.191 HD
ATOM     10  C   UNL     1     -15.063  -2.982  -2.606  0.00  0.00    +0.138 A 
ENDROOT
BRANCH   1  11
ATOM     11  N   UNL     1     -14.301  -1.374  -4.264  0.00  0.00    -0.261 N 
ATOM     12  H   UNL     1     -13.497  -0.814  -4.164  0.00  0.00    +0.170 HD
BRANCH  11  13
ATOM     13  N   UNL     1     -14.700  -1.881  -5.336  0.00  0.00    -0.266 N 
ATOM     14  H   UNL     1     -14.754  -2.848  -5.512  0.00  0.00    +0.170 HD
BRANCH  13  15
ATOM     15  C   UNL     1     -15.060  -0.878  -6.253  0.00  0.00    +0.044 A 
ATOM     16  C   UNL     1     -16.201  -0.940  -7.058  0.00  0.00    +0.025 A 
ATOM     17  C   UNL     1     -16.529   0.125  -7.906  0.00  0.00    +0.005 A 
ATOM     18  C   UNL     1     -15.707   1.257  -7.975  0.00  0.00    -0.050 A 
ATOM     19  C   UNL     1     -16.088   2.435  -8.822  0.00  0.00    +0.044 C 
ATOM     20  C   UNL     1     -14.554   1.310  -7.186  0.00  0.00    +0.005 A 
ATOM     21  C   UNL     1     -14.232   0.247  -6.342  0.00  0.00    +0.025 A 
ENDBRANCH  13  15
ENDBRANCH  11  13
ENDBRANCH   1  11
BRANCH   2  22
ATOM     22  O   UNL     1     -16.346   0.354  -3.407  0.00  0.00    -0.505 OA
ATOM     23  H   UNL     1     -15.477   0.681  -3.688  0.00  0.00    +0.292 HD
ENDBRANCH   2  22
TORSDOF 4
ENDMDL
