MODEL 1
REMARK VINA RESULT:      -6.0      0.000      0.000
REMARK  Name = min_compound958.pdb
REMARK  8 active torsions:
REMARK  status: ('A' for Active; 'I' for Inactive)
REMARK    1  A    between atoms: _8  and  _15
REMARK    2  A    between atoms: _9  and  _10
REMARK    3  A    between atoms: _10  and  _12
REMARK    4  A    between atoms: _12  and  _16
REMARK    5  A    between atoms: _14  and  _15
REMARK    6  A    between atoms: _14  and  _18
REMARK    7  A    between atoms: _16  and  _17
REMARK    8  A    between atoms: _18  and  _19
REMARK                            x       y       z     vdW  Elec       q    Type
REMARK                         _______ _______ _______ _____ _____    ______ ____
ROOT
ATOM      1  C   UNL     1      -9.728   0.111 -17.340  0.00  0.00    +0.005 C 
ATOM      2  C   UNL     1     -10.321  -0.742 -16.258  0.00  0.00    +0.005 C 
ATOM      3  C   UNL     1     -11.933  -0.409 -16.600  0.00  0.00    +0.042 C 
ATOM      4  C   UNL     1     -12.244   1.058 -16.502  0.00  0.00    -0.013 C 
ATOM      5  S   UNL     1     -13.806   1.723 -16.271  0.00  0.00    -0.106 S 
ATOM      6  C   UNL     1     -13.126   3.230 -15.750  0.00  0.00    +0.152 C 
ATOM      7  C   UNL     1     -11.859   3.360 -16.338  0.00  0.00    +0.155 C 
ATOM      8  C   UNL     1     -11.308   2.045 -16.679  0.00  0.00    -0.044 C 
ATOM      9  C   UNL     1      -9.908   1.663 -17.117  0.00  0.00    +0.032 C 
ENDROOT
BRANCH   6  10
ATOM     10  N   UNL     1     -13.934   4.185 -15.088  0.00  0.00    -0.313 N 
ATOM     11  H   UNL     1     -13.946   4.060 -14.078  0.00  0.00    +0.149 HD
BRANCH  10  12
ATOM     12  C   UNL     1     -14.982   5.016 -15.487  0.00  0.00    +0.131 C 
ATOM     13  S   UNL     1     -16.372   5.029 -14.555  0.00  0.00    -0.019 S 
BRANCH  12  14
ATOM     14  N   UNL     1     -14.986   5.730 -16.668  0.00  0.00    -0.330 N 
ATOM     15  H   UNL     1     -15.049   5.278 -17.573  0.00  0.00    +0.147 HD
ATOM     16  C   UNL     1     -14.895   7.212 -16.452  0.00  0.00    +0.127 C 
ENDBRANCH  12  14
ENDBRANCH  10  12
ENDBRANCH   6  10
BRANCH   7  17
ATOM     17  C   UNL     1     -11.132   4.617 -16.490  0.00  0.00    +0.317 C 
ATOM     18  O   UNL     1      -9.943   4.742 -16.225  0.00  0.00    -0.250 OA
BRANCH  17  19
ATOM     19  O   UNL     1     -11.900   5.596 -17.057  0.00  0.00    -0.464 OA
BRANCH  19  20
ATOM     20  C   UNL     1     -11.877   5.644 -18.491  0.00  0.00    +0.229 C 
ATOM     21  C   UNL     1     -11.788   7.084 -18.971  0.00  0.00    +0.048 C 
ENDBRANCH  19  20
ENDBRANCH  17  19
ENDBRANCH   7  17
TORSDOF 6
ENDMDL
MODEL 2
REMARK VINA RESULT:      -5.9      3.085      3.646
REMARK  Name = min_compound958.pdb
REMARK  8 active torsions:
REMARK  status: ('A' for Active; 'I' for Inactive)
REMARK    1  A    between atoms: _8  and  _15
REMARK    2  A    between atoms: _9  and  _10
REMARK    3  A    between atoms: _10  and  _12
REMARK    4  A    between atoms: _12  and  _16
REMARK    5  A    between atoms: _14  and  _15
REMARK    6  A    between atoms: _14  and  _18
REMARK    7  A    between atoms: _16  and  _17
REMARK    8  A    between atoms: _18  and  _19
REMARK                            x       y       z     vdW  Elec       q    Type
REMARK                         _______ _______ _______ _____ _____    ______ ____
ROOT
ATOM      1  C   UNL     1     -11.337  -1.051 -16.029  0.00  0.00    +0.005 C 
ATOM      2  C   UNL     1      -9.867  -0.757 -16.001  0.00  0.00    +0.005 C 
ATOM      3  C   UNL     1      -9.971   0.724 -15.213  0.00  0.00    +0.042 C 
ATOM      4  C   UNL     1     -10.807   1.714 -15.973  0.00  0.00    -0.013 C 
ATOM      5  S   UNL     1     -10.735   3.416 -15.786  0.00  0.00    -0.106 S 
ATOM      6  C   UNL     1     -11.518   3.653 -17.316  0.00  0.00    +0.152 C 
ATOM      7  C   UNL     1     -12.306   2.522 -17.578  0.00  0.00    +0.155 C 
ATOM      8  C   UNL     1     -11.798   1.355 -16.851  0.00  0.00    -0.044 C 
ATOM      9  C   UNL     1     -12.170  -0.108 -16.983  0.00  0.00    +0.032 C 
ENDROOT
BRANCH   6  10
ATOM     10  N   UNL     1     -11.500   4.924 -17.936  0.00  0.00    -0.313 N 
ATOM     11  H   UNL     1     -10.577   5.353 -17.933  0.00  0.00    +0.149 HD
BRANCH  10  12
ATOM     12  C   UNL     1     -12.477   5.878 -18.225  0.00  0.00    +0.131 C 
ATOM     13  S   UNL     1     -12.092   7.091 -19.313  0.00  0.00    -0.019 S 
BRANCH  12  14
ATOM     14  N   UNL     1     -13.693   5.950 -17.577  0.00  0.00    -0.330 N 
ATOM     15  H   UNL     1     -14.250   5.127 -17.379  0.00  0.00    +0.147 HD
ATOM     16  C   UNL     1     -14.074   7.354 -17.209  0.00  0.00    +0.127 C 
ENDBRANCH  12  14
ENDBRANCH  10  12
ENDBRANCH   6  10
BRANCH   7  17
ATOM     17  C   UNL     1     -13.413   2.477 -18.529  0.00  0.00    +0.317 C 
ATOM     18  O   UNL     1     -14.521   2.939 -18.292  0.00  0.00    -0.250 OA
BRANCH  17  19
ATOM     19  O   UNL     1     -13.037   1.962 -19.739  0.00  0.00    -0.464 OA
BRANCH  19  20
ATOM     20  C   UNL     1     -13.983   2.136 -20.804  0.00  0.00    +0.229 C 
ATOM     21  C   UNL     1     -13.448   1.530 -22.092  0.00  0.00    +0.048 C 
ENDBRANCH  19  20
ENDBRANCH  17  19
ENDBRANCH   7  17
TORSDOF 6
ENDMDL
MODEL 3
REMARK VINA RESULT:      -5.8      2.494      3.772
REMARK  Name = min_compound958.pdb
REMARK  8 active torsions:
REMARK  status: ('A' for Active; 'I' for Inactive)
REMARK    1  A    between atoms: _8  and  _15
REMARK    2  A    between atoms: _9  and  _10
REMARK    3  A    between atoms: _10  and  _12
REMARK    4  A    between atoms: _12  and  _16
REMARK    5  A    between atoms: _14  and  _15
REMARK    6  A    between atoms: _14  and  _18
REMARK    7  A    between atoms: _16  and  _17
REMARK    8  A    between atoms: _18  and  _19
REMARK                            x       y       z     vdW  Elec       q    Type
REMARK                         _______ _______ _______ _____ _____    ______ ____
ROOT
ATOM      1  C   UNL     1     -11.826  -0.683 -16.289  0.00  0.00    +0.005 C 
ATOM      2  C   UNL     1     -10.436  -0.536 -16.833  0.00  0.00    +0.005 C 
ATOM      3  C   UNL     1      -9.991   0.787 -15.897  0.00  0.00    +0.042 C 
ATOM      4  C   UNL     1     -10.894   1.969 -16.117  0.00  0.00    -0.013 C 
ATOM      5  S   UNL     1     -10.491   3.597 -15.768  0.00  0.00    -0.106 S 
ATOM      6  C   UNL     1     -11.764   4.170 -16.797  0.00  0.00    +0.152 C 
ATOM      7  C   UNL     1     -12.757   3.180 -16.848  0.00  0.00    +0.155 C 
ATOM      8  C   UNL     1     -12.193   1.861 -16.544  0.00  0.00    -0.044 C 
ATOM      9  C   UNL     1     -12.809   0.485 -16.691  0.00  0.00    +0.032 C 
ENDROOT
BRANCH   6  10
ATOM     10  N   UNL     1     -11.795   5.523 -17.208  0.00  0.00    -0.313 N 
ATOM     11  H   UNL     1     -11.524   6.167 -16.467  0.00  0.00    +0.149 HD
BRANCH  10  12
ATOM     12  C   UNL     1     -12.433   6.211 -18.240  0.00  0.00    +0.131 C 
ATOM     13  S   UNL     1     -13.638   7.299 -17.831  0.00  0.00    -0.019 S 
BRANCH  12  14
ATOM     14  N   UNL     1     -12.215   5.959 -19.579  0.00  0.00    -0.330 N 
ATOM     15  H   UNL     1     -12.517   5.100 -20.023  0.00  0.00    +0.147 HD
ATOM     16  C   UNL     1     -11.502   7.081 -20.274  0.00  0.00    +0.127 C 
ENDBRANCH  12  14
ENDBRANCH  10  12
ENDBRANCH   6  10
BRANCH   7  17
ATOM     17  C   UNL     1     -14.141   3.404 -17.256  0.00  0.00    +0.317 C 
ATOM     18  O   UNL     1     -14.634   2.908 -18.262  0.00  0.00    -0.250 OA
BRANCH  17  19
ATOM     19  O   UNL     1     -14.842   4.135 -16.337  0.00  0.00    -0.464 OA
BRANCH  19  20
ATOM     20  C   UNL     1     -15.023   3.508 -15.059  0.00  0.00    +0.229 C 
ATOM     21  C   UNL     1     -15.989   2.340 -15.174  0.00  0.00    +0.048 C 
ENDBRANCH  19  20
ENDBRANCH  17  19
ENDBRANCH   7  17
TORSDOF 6
ENDMDL
MODEL 4
REMARK VINA RESULT:      -5.4      2.610      3.475
REMARK  Name = min_compound958.pdb
REMARK  8 active torsions:
REMARK  status: ('A' for Active; 'I' for Inactive)
REMARK    1  A    between atoms: _8  and  _15
REMARK    2  A    between atoms: _9  and  _10
REMARK    3  A    between atoms: _10  and  _12
REMARK    4  A    between atoms: _12  and  _16
REMARK    5  A    between atoms: _14  and  _15
REMARK    6  A    between atoms: _14  and  _18
REMARK    7  A    between atoms: _16  and  _17
REMARK    8  A    between atoms: _18  and  _19
REMARK                            x       y       z     vdW  Elec       q    Type
REMARK                         _______ _______ _______ _____ _____    ______ ____
ROOT
ATOM      1  C   UNL     1     -11.359  -0.717 -16.587  0.00  0.00    +0.005 C 
ATOM      2  C   UNL     1     -10.463  -0.468 -17.764  0.00  0.00    +0.005 C 
ATOM      3  C   UNL     1      -9.675   0.878 -17.137  0.00  0.00    +0.042 C 
ATOM      4  C   UNL     1     -10.628   1.994 -16.812  0.00  0.00    -0.013 C 
ATOM      5  S   UNL     1     -10.198   3.644 -16.654  0.00  0.00    -0.106 S 
ATOM      6  C   UNL     1     -11.850   4.131 -16.855  0.00  0.00    +0.152 C 
ATOM      7  C   UNL     1     -12.667   3.074 -16.427  0.00  0.00    +0.155 C 
ATOM      8  C   UNL     1     -11.952   1.797 -16.512  0.00  0.00    -0.044 C 
ATOM      9  C   UNL     1     -12.474   0.381 -16.377  0.00  0.00    +0.032 C 
ENDROOT
BRANCH   6  10
ATOM     10  N   UNL     1     -12.167   5.481 -17.135  0.00  0.00    -0.313 N 
ATOM     11  H   UNL     1     -12.432   6.005 -16.304  0.00  0.00    +0.149 HD
BRANCH  10  12
ATOM     12  C   UNL     1     -12.548   6.171 -18.286  0.00  0.00    +0.131 C 
ATOM     13  S   UNL     1     -13.747   7.331 -18.145  0.00  0.00    -0.019 S 
BRANCH  12  14
ATOM     14  N   UNL     1     -12.084   5.869 -19.550  0.00  0.00    -0.330 N 
ATOM     15  H   UNL     1     -12.102   4.926 -19.920  0.00  0.00    +0.147 HD
ATOM     16  C   UNL     1     -11.572   7.072 -20.285  0.00  0.00    +0.127 C 
ENDBRANCH  12  14
ENDBRANCH  10  12
ENDBRANCH   6  10
BRANCH   7  17
ATOM     17  C   UNL     1     -14.073   3.202 -16.053  0.00  0.00    +0.317 C 
ATOM     18  O   UNL     1     -14.449   3.768 -15.035  0.00  0.00    -0.250 OA
BRANCH  17  19
ATOM     19  O   UNL     1     -14.913   2.717 -17.017  0.00  0.00    -0.464 OA
BRANCH  19  20
ATOM     20  C   UNL     1     -15.410   3.688 -17.949  0.00  0.00    +0.229 C 
ATOM     21  C   UNL     1     -14.849   3.426 -19.337  0.00  0.00    +0.048 C 
ENDBRANCH  19  20
ENDBRANCH  17  19
ENDBRANCH   7  17
TORSDOF 6
ENDMDL
MODEL 5
REMARK VINA RESULT:      -5.4      2.520      2.826
REMARK  Name = min_compound958.pdb
REMARK  8 active torsions:
REMARK  status: ('A' for Active; 'I' for Inactive)
REMARK    1  A    between atoms: _8  and  _15
REMARK    2  A    between atoms: _9  and  _10
REMARK    3  A    between atoms: _10  and  _12
REMARK    4  A    between atoms: _12  and  _16
REMARK    5  A    between atoms: _14  and  _15
REMARK    6  A    between atoms: _14  and  _18
REMARK    7  A    between atoms: _16  and  _17
REMARK    8  A    between atoms: _18  and  _19
REMARK                            x       y       z     vdW  Elec       q    Type
REMARK                         _______ _______ _______ _____ _____    ______ ____
ROOT
ATOM      1  C   UNL     1     -10.126   0.795 -15.706  0.00  0.00    +0.005 C 
ATOM      2  C   UNL     1     -10.709  -0.477 -16.246  0.00  0.00    +0.005 C 
ATOM      3  C   UNL     1     -10.956   0.066 -17.818  0.00  0.00    +0.042 C 
ATOM      4  C   UNL     1     -11.866   1.260 -17.871  0.00  0.00    -0.013 C 
ATOM      5  S   UNL     1     -12.747   1.770 -19.249  0.00  0.00    -0.106 S 
ATOM      6  C   UNL     1     -13.809   2.722 -18.262  0.00  0.00    +0.152 C 
ATOM      7  C   UNL     1     -13.110   3.087 -17.102  0.00  0.00    +0.155 C 
ATOM      8  C   UNL     1     -12.024   2.140 -16.830  0.00  0.00    -0.044 C 
ATOM      9  C   UNL     1     -11.155   1.988 -15.598  0.00  0.00    +0.032 C 
ENDROOT
BRANCH   6  10
ATOM     10  N   UNL     1     -15.029   3.206 -18.790  0.00  0.00    -0.313 N 
ATOM     11  H   UNL     1     -15.743   2.484 -18.862  0.00  0.00    +0.149 HD
BRANCH  10  12
ATOM     12  C   UNL     1     -15.384   4.317 -19.556  0.00  0.00    +0.131 C 
ATOM     13  S   UNL     1     -15.425   4.142 -21.221  0.00  0.00    -0.019 S 
BRANCH  12  14
ATOM     14  N   UNL     1     -15.583   5.578 -19.032  0.00  0.00    -0.330 N 
ATOM     15  H   UNL     1     -15.029   6.376 -19.319  0.00  0.00    +0.147 HD
ATOM     16  C   UNL     1     -16.689   5.619 -18.020  0.00  0.00    +0.127 C 
ENDBRANCH  12  14
ENDBRANCH  10  12
ENDBRANCH   6  10
BRANCH   7  17
ATOM     17  C   UNL     1     -13.475   4.190 -16.218  0.00  0.00    +0.317 C 
ATOM     18  O   UNL     1     -13.730   4.042 -15.029  0.00  0.00    -0.250 OA
BRANCH  17  19
ATOM     19  O   UNL     1     -13.394   5.404 -16.841  0.00  0.00    -0.464 OA
BRANCH  19  20
ATOM     20  C   UNL     1     -12.087   5.774 -17.304  0.00  0.00    +0.229 C 
ATOM     21  C   UNL     1     -12.183   6.913 -18.306  0.00  0.00    +0.048 C 
ENDBRANCH  19  20
ENDBRANCH  17  19
ENDBRANCH   7  17
TORSDOF 6
ENDMDL
MODEL 6
REMARK VINA RESULT:      -5.3     12.741     13.774
REMARK  Name = min_compound958.pdb
REMARK  8 active torsions:
REMARK  status: ('A' for Active; 'I' for Inactive)
REMARK    1  A    between atoms: _8  and  _15
REMARK    2  A    between atoms: _9  and  _10
REMARK    3  A    between atoms: _10  and  _12
REMARK    4  A    between atoms: _12  and  _16
REMARK    5  A    between atoms: _14  and  _15
REMARK    6  A    between atoms: _14  and  _18
REMARK    7  A    between atoms: _16  and  _17
REMARK    8  A    between atoms: _18  and  _19
REMARK                            x       y       z     vdW  Elec       q    Type
REMARK                         _______ _______ _______ _____ _____    ______ ____
ROOT
ATOM      1  C   UNL     1     -14.503  -2.196  -1.760  0.00  0.00    +0.005 C 
ATOM      2  C   UNL     1     -15.639  -2.129  -0.782  0.00  0.00    +0.005 C 
ATOM      3  C   UNL     1     -16.870  -1.964  -1.914  0.00  0.00    +0.042 C 
ATOM      4  C   UNL     1     -16.693  -0.745  -2.774  0.00  0.00    -0.013 C 
ATOM      5  S   UNL     1     -17.941   0.034  -3.653  0.00  0.00    -0.106 S 
ATOM      6  C   UNL     1     -16.989   1.476  -3.796  0.00  0.00    +0.152 C 
ATOM      7  C   UNL     1     -15.636   1.110  -3.733  0.00  0.00    +0.155 C 
ATOM      8  C   UNL     1     -15.475  -0.164  -3.025  0.00  0.00    -0.044 C 
ATOM      9  C   UNL     1     -14.218  -0.842  -2.519  0.00  0.00    +0.032 C 
ENDROOT
BRANCH   6  10
ATOM     10  N   UNL     1     -17.593   2.693  -4.192  0.00  0.00    -0.313 N 
ATOM     11  H   UNL     1     -17.806   2.723  -5.187  0.00  0.00    +0.149 HD
BRANCH  10  12
ATOM     12  C   UNL     1     -17.643   3.976  -3.646  0.00  0.00    +0.131 C 
ATOM     13  S   UNL     1     -19.051   4.444  -2.870  0.00  0.00    -0.019 S 
BRANCH  12  14
ATOM     14  N   UNL     1     -16.651   4.920  -3.815  0.00  0.00    -0.330 N 
ATOM     15  H   UNL     1     -15.711   4.784  -3.462  0.00  0.00    +0.147 HD
ATOM     16  C   UNL     1     -17.121   6.130  -4.566  0.00  0.00    +0.127 C 
ENDBRANCH  12  14
ENDBRANCH  10  12
ENDBRANCH   6  10
BRANCH   7  17
ATOM     17  C   UNL     1     -14.524   1.931  -4.204  0.00  0.00    +0.317 C 
ATOM     18  O   UNL     1     -14.283   3.049  -3.768  0.00  0.00    -0.250 OA
BRANCH  17  19
ATOM     19  O   UNL     1     -13.731   1.268  -5.099  0.00  0.00    -0.464 OA
BRANCH  19  20
ATOM     20  C   UNL     1     -14.325   1.014  -6.380  0.00  0.00    +0.229 C 
ATOM     21  C   UNL     1     -14.453  -0.482  -6.619  0.00  0.00    +0.048 C 
ENDBRANCH  19  20
ENDBRANCH  17  19
ENDBRANCH   7  17
TORSDOF 6
ENDMDL
MODEL 7
REMARK VINA RESULT:      -5.3      2.683      3.608
REMARK  Name = min_compound958.pdb
REMARK  8 active torsions:
REMARK  status: ('A' for Active; 'I' for Inactive)
REMARK    1  A    between atoms: _8  and  _15
REMARK    2  A    between atoms: _9  and  _10
REMARK    3  A    between atoms: _10  and  _12
REMARK    4  A    between atoms: _12  and  _16
REMARK    5  A    between atoms: _14  and  _15
REMARK    6  A    between atoms: _14  and  _18
REMARK    7  A    between atoms: _16  and  _17
REMARK    8  A    between atoms: _18  and  _19
REMARK                            x       y       z     vdW  Elec       q    Type
REMARK                         _______ _______ _______ _____ _____    ______ ____
ROOT
ATOM      1  C   UNL     1     -10.126   0.721 -15.632  0.00  0.00    +0.005 C 
ATOM      2  C   UNL     1     -10.657  -0.544 -16.239  0.00  0.00    +0.005 C 
ATOM      3  C   UNL     1     -10.874   0.054 -17.795  0.00  0.00    +0.042 C 
ATOM      4  C   UNL     1     -11.816   1.224 -17.828  0.00  0.00    -0.013 C 
ATOM      5  S   UNL     1     -12.672   1.764 -19.210  0.00  0.00    -0.106 S 
ATOM      6  C   UNL     1     -13.788   2.647 -18.219  0.00  0.00    +0.152 C 
ATOM      7  C   UNL     1     -13.133   2.984 -17.025  0.00  0.00    +0.155 C 
ATOM      8  C   UNL     1     -12.029   2.057 -16.758  0.00  0.00    -0.044 C 
ATOM      9  C   UNL     1     -11.191   1.880 -15.508  0.00  0.00    +0.032 C 
ENDROOT
BRANCH   6  10
ATOM     10  N   UNL     1     -15.006   3.118 -18.763  0.00  0.00    -0.313 N 
ATOM     11  H   UNL     1     -15.662   2.368 -18.971  0.00  0.00    +0.149 HD
BRANCH  10  12
ATOM     12  C   UNL     1     -15.392   4.294 -19.408  0.00  0.00    +0.131 C 
ATOM     13  S   UNL     1     -16.597   4.195 -20.566  0.00  0.00    -0.019 S 
BRANCH  12  14
ATOM     14  N   UNL     1     -14.755   5.506 -19.237  0.00  0.00    -0.330 N 
ATOM     15  H   UNL     1     -14.704   5.967 -18.336  0.00  0.00    +0.147 HD
ATOM     16  C   UNL     1     -14.164   6.038 -20.509  0.00  0.00    +0.127 C 
ENDBRANCH  12  14
ENDBRANCH  10  12
ENDBRANCH   6  10
BRANCH   7  17
ATOM     17  C   UNL     1     -13.554   4.041 -16.110  0.00  0.00    +0.317 C 
ATOM     18  O   UNL     1     -13.576   5.226 -16.416  0.00  0.00    -0.250 OA
BRANCH  17  19
ATOM     19  O   UNL     1     -14.020   3.545 -14.923  0.00  0.00    -0.464 OA
BRANCH  19  20
ATOM     20  C   UNL     1     -15.438   3.638 -14.730  0.00  0.00    +0.229 C 
ATOM     21  C   UNL     1     -16.096   2.290 -14.980  0.00  0.00    +0.048 C 
ENDBRANCH  19  20
ENDBRANCH  17  19
ENDBRANCH   7  17
TORSDOF 6
ENDMDL
MODEL 8
REMARK VINA RESULT:      -5.3     11.746     13.302
REMARK  Name = min_compound958.pdb
REMARK  8 active torsions:
REMARK  status: ('A' for Active; 'I' for Inactive)
REMARK    1  A    between atoms: _8  and  _15
REMARK    2  A    between atoms: _9  and  _10
REMARK    3  A    between atoms: _10  and  _12
REMARK    4  A    between atoms: _12  and  _16
REMARK    5  A    between atoms: _14  and  _15
REMARK    6  A    between atoms: _14  and  _18
REMARK    7  A    between atoms: _16  and  _17
REMARK    8  A    between atoms: _18  and  _19
REMARK                            x       y       z     vdW  Elec       q    Type
REMARK                         _______ _______ _______ _____ _____    ______ ____
ROOT
ATOM      1  C   UNL     1     -16.110   2.598  -8.537  0.00  0.00    +0.005 C 
ATOM      2  C   UNL     1     -17.451   2.133  -9.022  0.00  0.00    +0.005 C 
ATOM      3  C   UNL     1     -18.230   2.176  -7.533  0.00  0.00    +0.042 C 
ATOM      4  C   UNL     1     -17.571   1.283  -6.520  0.00  0.00    -0.013 C 
ATOM      5  S   UNL     1     -18.322   0.667  -5.109  0.00  0.00    -0.106 S 
ATOM      6  C   UNL     1     -17.111  -0.565  -4.958  0.00  0.00    +0.152 C 
ATOM      7  C   UNL     1     -15.938  -0.095  -5.566  0.00  0.00    +0.155 C 
ATOM      8  C   UNL     1     -16.246   0.929  -6.569  0.00  0.00    -0.044 C 
ATOM      9  C   UNL     1     -15.354   1.558  -7.620  0.00  0.00    +0.032 C 
ENDROOT
BRANCH   6  10
ATOM     10  N   UNL     1     -17.322  -1.671  -4.101  0.00  0.00    -0.313 N 
ATOM     11  H   UNL     1     -18.253  -2.072  -4.196  0.00  0.00    +0.149 HD
BRANCH  10  12
ATOM     12  C   UNL     1     -16.717  -2.119  -2.926  0.00  0.00    +0.131 C 
ATOM     13  S   UNL     1     -17.252  -1.479  -1.475  0.00  0.00    -0.019 S 
BRANCH  12  14
ATOM     14  N   UNL     1     -15.625  -2.963  -2.900  0.00  0.00    -0.330 N 
ATOM     15  H   UNL     1     -15.587  -3.813  -3.449  0.00  0.00    +0.147 HD
ATOM     16  C   UNL     1     -14.537  -2.477  -1.989  0.00  0.00    +0.127 C 
ENDBRANCH  12  14
ENDBRANCH  10  12
ENDBRANCH   6  10
BRANCH   7  17
ATOM     17  C   UNL     1     -14.599  -0.624  -5.321  0.00  0.00    +0.317 C 
ATOM     18  O   UNL     1     -14.306  -1.804  -5.469  0.00  0.00    -0.250 OA
BRANCH  17  19
ATOM     19  O   UNL     1     -13.699   0.359  -5.017  0.00  0.00    -0.464 OA
BRANCH  19  20
ATOM     20  C   UNL     1     -13.768   0.866  -3.676  0.00  0.00    +0.229 C 
ATOM     21  C   UNL     1     -13.764   2.387  -3.684  0.00  0.00    +0.048 C 
ENDBRANCH  19  20
ENDBRANCH  17  19
ENDBRANCH   7  17
TORSDOF 6
ENDMDL
MODEL 9
REMARK VINA RESULT:      -5.0      3.488      4.363
REMARK  Name = min_compound958.pdb
REMARK  8 active torsions:
REMARK  status: ('A' for Active; 'I' for Inactive)
REMARK    1  A    between atoms: _8  and  _15
REMARK    2  A    between atoms: _9  and  _10
REMARK    3  A    between atoms: _10  and  _12
REMARK    4  A    between atoms: _12  and  _16
REMARK    5  A    between atoms: _14  and  _15
REMARK    6  A    between atoms: _14  and  _18
REMARK    7  A    between atoms: _16  and  _17
REMARK    8  A    between atoms: _18  and  _19
REMARK                            x       y       z     vdW  Elec       q    Type
REMARK                         _______ _______ _______ _____ _____    ______ ____
ROOT
ATOM      1  C   UNL     1     -11.239   0.017 -16.695  0.00  0.00    +0.005 C 
ATOM      2  C   UNL     1      -9.856   0.576 -16.850  0.00  0.00    +0.005 C 
ATOM      3  C   UNL     1     -10.158   2.064 -16.128  0.00  0.00    +0.042 C 
ATOM      4  C   UNL     1     -11.240   2.830 -16.834  0.00  0.00    -0.013 C 
ATOM      5  S   UNL     1     -11.474   4.524 -16.740  0.00  0.00    -0.106 S 
ATOM      6  C   UNL     1     -12.441   4.508 -18.179  0.00  0.00    +0.152 C 
ATOM      7  C   UNL     1     -13.024   3.236 -18.294  0.00  0.00    +0.155 C 
ATOM      8  C   UNL     1     -12.231   2.235 -17.574  0.00  0.00    -0.044 C 
ATOM      9  C   UNL     1     -12.330   0.723 -17.592  0.00  0.00    +0.032 C 
ENDROOT
BRANCH   6  10
ATOM     10  N   UNL     1     -12.730   5.715 -18.858  0.00  0.00    -0.313 N 
ATOM     11  H   UNL     1     -13.288   6.358 -18.301  0.00  0.00    +0.149 HD
BRANCH  10  12
ATOM     12  C   UNL     1     -12.748   6.094 -20.201  0.00  0.00    +0.131 C 
ATOM     13  S   UNL     1     -14.234   6.384 -20.914  0.00  0.00    -0.019 S 
BRANCH  12  14
ATOM     14  N   UNL     1     -11.626   6.124 -21.004  0.00  0.00    -0.330 N 
ATOM     15  H   UNL     1     -11.189   5.280 -21.353  0.00  0.00    +0.147 HD
ATOM     16  C   UNL     1     -11.152   7.519 -21.289  0.00  0.00    +0.127 C 
ENDBRANCH  12  14
ENDBRANCH  10  12
ENDBRANCH   6  10
BRANCH   7  17
ATOM     17  C   UNL     1     -14.194   2.923 -19.109  0.00  0.00    +0.317 C 
ATOM     18  O   UNL     1     -15.281   3.466 -18.958  0.00  0.00    -0.250 OA
BRANCH  17  19
ATOM     19  O   UNL     1     -13.907   2.045 -20.116  0.00  0.00    -0.464 OA
BRANCH  19  20
ATOM     20  C   UNL     1     -13.843   2.613 -21.432  0.00  0.00    +0.229 C 
ATOM     21  C   UNL     1     -13.067   1.699 -22.367  0.00  0.00    +0.048 C 
ENDBRANCH  19  20
ENDBRANCH  17  19
ENDBRANCH   7  17
TORSDOF 6
ENDMDL
