MODEL 1
REMARK VINA RESULT:      -6.4      0.000      0.000
REMARK  Name = min_compound927.pdb
REMARK  8 active torsions:
REMARK  status: ('A' for Active; 'I' for Inactive)
REMARK    1  A    between atoms: _1  and  _16
REMARK    2  A    between atoms: _2  and  _10
REMARK    3  A    between atoms: _9  and  _11
REMARK    4  A    between atoms: _10  and  _13
REMARK    5  A    between atoms: _11  and  _15
REMARK    6  A    between atoms: _12  and  _15
REMARK    7  A    between atoms: _12  and  _19
REMARK    8  A    between atoms: _12  and  _20
REMARK                            x       y       z     vdW  Elec       q    Type
REMARK                         _______ _______ _______ _____ _____    ______ ____
ROOT
ATOM      1  C   UNL     1     -16.474   4.806 -11.838  0.00  0.00    +0.280 A 
ATOM      2  C   UNL     1     -15.429   4.989 -12.756  0.00  0.00    +0.107 A 
ATOM      3  C   UNL     1     -15.244   4.082 -13.801  0.00  0.00    +0.037 A 
ATOM      4  N   UNL     1     -14.235   4.327 -14.744  0.00  0.00    -0.339 N 
ATOM      5  H   UNL     1     -13.435   4.805 -14.335  0.00  0.00    +0.146 HD
ATOM      6  C   UNL     1     -13.851   3.199 -15.605  0.00  0.00    +0.084 C 
ATOM      7  C   UNL     1     -15.115   2.566 -16.197  0.00  0.00    +0.028 C 
ATOM      8  C   UNL     1     -16.008   2.039 -15.080  0.00  0.00    +0.039 C 
ATOM      9  C   UNL     1     -16.167   3.035 -13.960  0.00  0.00    -0.026 A 
ATOM     10  C   UNL     1     -17.218   2.867 -13.036  0.00  0.00    +0.018 A 
ATOM     11  C   UNL     1     -17.394   3.751 -11.962  0.00  0.00    +0.055 A 
ENDROOT
BRANCH   1  12
ATOM     12  N   UNL     1     -16.548   5.741 -10.721  0.00  0.00    +0.080 N 
ATOM     13  O   UNL     1     -17.113   6.825 -10.921  0.00  0.00    +0.041 OA
ATOM     14  O   UNL     1     -15.978   5.417  -9.668  0.00  0.00    -0.576 OA
ENDBRANCH   1  12
BRANCH   6  15
ATOM     15  C   UNL     1     -12.898   3.713 -16.721  0.00  0.00    +0.103 C 
BRANCH  15  16
ATOM     16  N   UNL     1     -11.988   2.673 -17.226  0.00  0.00    -0.312 NA
ATOM     17  H   UNL     1     -11.899   2.751 -18.239  0.00  0.00    +0.122 HD
BRANCH  16  18
ATOM     18  C   UNL     1     -10.639   2.754 -16.634  0.00  0.00    +0.048 C 
ATOM     19  C   UNL     1     -10.473   1.575 -15.664  0.00  0.00    +0.023 C 
ATOM     20  C   UNL     1     -10.367   4.089 -16.006  0.00  0.00    +0.023 C 
ENDBRANCH  16  18
ENDBRANCH  15  16
ENDBRANCH   6  15
BRANCH  11  21
ATOM     21  C   UNL     1     -18.537   3.543 -11.010  0.00  0.00    +0.197 C 
BRANCH  21  22
ATOM     22  O   UNL     1     -18.042   2.945  -9.822  0.00  0.00    -0.390 OA
ATOM     23  H   UNL     1     -18.595   3.269  -9.090  0.00  0.00    +0.210 HD
ENDBRANCH  21  22
ENDBRANCH  11  21
TORSDOF 6
ENDMDL
MODEL 2
REMARK VINA RESULT:      -5.8      3.335      4.648
REMARK  Name = min_compound927.pdb
REMARK  8 active torsions:
REMARK  status: ('A' for Active; 'I' for Inactive)
REMARK    1  A    between atoms: _1  and  _16
REMARK    2  A    between atoms: _2  and  _10
REMARK    3  A    between atoms: _9  and  _11
REMARK    4  A    between atoms: _10  and  _13
REMARK    5  A    between atoms: _11  and  _15
REMARK    6  A    between atoms: _12  and  _15
REMARK    7  A    between atoms: _12  and  _19
REMARK    8  A    between atoms: _12  and  _20
REMARK                            x       y       z     vdW  Elec       q    Type
REMARK                         _______ _______ _______ _____ _____    ______ ____
ROOT
ATOM      1  C   UNL     1     -16.051   7.151 -15.051  0.00  0.00    +0.280 A 
ATOM      2  C   UNL     1     -15.436   5.922 -15.335  0.00  0.00    +0.107 A 
ATOM      3  C   UNL     1     -14.474   5.834 -16.344  0.00  0.00    +0.037 A 
ATOM      4  N   UNL     1     -13.826   4.609 -16.560  0.00  0.00    -0.339 N 
ATOM      5  H   UNL     1     -14.429   3.814 -16.358  0.00  0.00    +0.146 HD
ATOM      6  C   UNL     1     -13.094   4.467 -17.828  0.00  0.00    +0.084 C 
ATOM      7  C   UNL     1     -12.195   5.691 -18.029  0.00  0.00    +0.028 C 
ATOM      8  C   UNL     1     -13.042   6.956 -18.099  0.00  0.00    +0.039 C 
ATOM      9  C   UNL     1     -14.082   7.007 -17.009  0.00  0.00    -0.026 A 
ATOM     10  C   UNL     1     -14.701   8.237 -16.708  0.00  0.00    +0.018 A 
ATOM     11  C   UNL     1     -15.692   8.333 -15.721  0.00  0.00    +0.055 A 
ENDROOT
BRANCH   1  12
ATOM     12  N   UNL     1     -17.110   7.147 -14.049  0.00  0.00    +0.080 N 
ATOM     13  O   UNL     1     -18.251   6.845 -14.425  0.00  0.00    +0.041 OA
ATOM     14  O   UNL     1     -16.810   7.514 -12.902  0.00  0.00    -0.576 OA
ENDBRANCH   1  12
BRANCH   6  15
ATOM     15  C   UNL     1     -12.264   3.153 -17.790  0.00  0.00    +0.103 C 
BRANCH  15  16
ATOM     16  N   UNL     1     -12.962   2.049 -17.111  0.00  0.00    -0.312 NA
ATOM     17  H   UNL     1     -13.514   1.520 -17.786  0.00  0.00    +0.122 HD
BRANCH  16  18
ATOM     18  C   UNL     1     -12.041   1.118 -16.434  0.00  0.00    +0.048 C 
ATOM     19  C   UNL     1     -10.984   1.947 -15.691  0.00  0.00    +0.023 C 
ATOM     20  C   UNL     1     -11.455   0.104 -17.372  0.00  0.00    +0.023 C 
ENDBRANCH  16  18
ENDBRANCH  15  16
ENDBRANCH   6  15
BRANCH  11  21
ATOM     21  C   UNL     1     -16.315   9.667 -15.422  0.00  0.00    +0.197 C 
BRANCH  21  22
ATOM     22  O   UNL     1     -15.786  10.156 -14.200  0.00  0.00    -0.390 OA
ATOM     23  H   UNL     1     -14.968   9.659 -14.027  0.00  0.00    +0.210 HD
ENDBRANCH  21  22
ENDBRANCH  11  21
TORSDOF 6
ENDMDL
MODEL 3
REMARK VINA RESULT:      -5.8      2.447      3.874
REMARK  Name = min_compound927.pdb
REMARK  8 active torsions:
REMARK  status: ('A' for Active; 'I' for Inactive)
REMARK    1  A    between atoms: _1  and  _16
REMARK    2  A    between atoms: _2  and  _10
REMARK    3  A    between atoms: _9  and  _11
REMARK    4  A    between atoms: _10  and  _13
REMARK    5  A    between atoms: _11  and  _15
REMARK    6  A    between atoms: _12  and  _15
REMARK    7  A    between atoms: _12  and  _19
REMARK    8  A    between atoms: _12  and  _20
REMARK                            x       y       z     vdW  Elec       q    Type
REMARK                         _______ _______ _______ _____ _____    ______ ____
ROOT
ATOM      1  C   UNL     1     -16.129   3.447 -14.735  0.00  0.00    +0.280 A 
ATOM      2  C   UNL     1     -15.337   2.478 -15.370  0.00  0.00    +0.107 A 
ATOM      3  C   UNL     1     -14.233   2.863 -16.133  0.00  0.00    +0.037 A 
ATOM      4  N   UNL     1     -13.420   1.872 -16.700  0.00  0.00    -0.339 N 
ATOM      5  H   UNL     1     -13.947   1.037 -16.949  0.00  0.00    +0.146 HD
ATOM      6  C   UNL     1     -12.496   2.304 -17.760  0.00  0.00    +0.084 C 
ATOM      7  C   UNL     1     -11.728   3.542 -17.282  0.00  0.00    +0.028 C 
ATOM      8  C   UNL     1     -12.700   4.680 -16.993  0.00  0.00    +0.039 C 
ATOM      9  C   UNL     1     -13.889   4.224 -16.186  0.00  0.00    -0.026 A 
ATOM     10  C   UNL     1     -14.687   5.186 -15.536  0.00  0.00    +0.018 A 
ATOM     11  C   UNL     1     -15.819   4.816 -14.795  0.00  0.00    +0.055 A 
ENDROOT
BRANCH   1  12
ATOM     12  N   UNL     1     -17.317   2.976 -14.032  0.00  0.00    +0.080 N 
ATOM     13  O   UNL     1     -17.178   2.609 -12.857  0.00  0.00    +0.041 OA
ATOM     14  O   UNL     1     -18.373   2.907 -14.681  0.00  0.00    -0.576 OA
ENDBRANCH   1  12
BRANCH   6  15
ATOM     15  C   UNL     1     -11.530   1.135 -18.100  0.00  0.00    +0.103 C 
BRANCH  15  16
ATOM     16  N   UNL     1     -10.146   1.387 -17.670  0.00  0.00    -0.312 NA
ATOM     17  H   UNL     1     -10.105   2.240 -17.113  0.00  0.00    +0.122 HD
BRANCH  16  18
ATOM     18  C   UNL     1      -9.583   0.283 -16.870  0.00  0.00    +0.048 C 
ATOM     19  C   UNL     1      -9.899  -1.037 -17.589  0.00  0.00    +0.023 C 
ATOM     20  C   UNL     1     -10.046   0.313 -15.444  0.00  0.00    +0.023 C 
ENDBRANCH  16  18
ENDBRANCH  15  16
ENDBRANCH   6  15
BRANCH  11  21
ATOM     21  C   UNL     1     -16.633   5.873 -14.105  0.00  0.00    +0.197 C 
BRANCH  21  22
ATOM     22  O   UNL     1     -15.800   6.570 -13.192  0.00  0.00    -0.390 OA
ATOM     23  H   UNL     1     -15.943   7.520 -13.346  0.00  0.00    +0.210 HD
ENDBRANCH  21  22
ENDBRANCH  11  21
TORSDOF 6
ENDMDL
MODEL 4
REMARK VINA RESULT:      -5.7      3.951      6.675
REMARK  Name = min_compound927.pdb
REMARK  8 active torsions:
REMARK  status: ('A' for Active; 'I' for Inactive)
REMARK    1  A    between atoms: _1  and  _16
REMARK    2  A    between atoms: _2  and  _10
REMARK    3  A    between atoms: _9  and  _11
REMARK    4  A    between atoms: _10  and  _13
REMARK    5  A    between atoms: _11  and  _15
REMARK    6  A    between atoms: _12  and  _15
REMARK    7  A    between atoms: _12  and  _19
REMARK    8  A    between atoms: _12  and  _20
REMARK                            x       y       z     vdW  Elec       q    Type
REMARK                         _______ _______ _______ _____ _____    ______ ____
ROOT
ATOM      1  C   UNL     1     -12.559   3.169 -16.131  0.00  0.00    +0.280 A 
ATOM      2  C   UNL     1     -13.315   4.131 -15.444  0.00  0.00    +0.107 A 
ATOM      3  C   UNL     1     -14.639   3.864 -15.091  0.00  0.00    +0.037 A 
ATOM      4  N   UNL     1     -15.349   4.816 -14.345  0.00  0.00    -0.339 N 
ATOM      5  H   UNL     1     -15.059   5.768 -14.561  0.00  0.00    +0.146 HD
ATOM      6  C   UNL     1     -16.810   4.658 -14.296  0.00  0.00    +0.084 C 
ATOM      7  C   UNL     1     -17.147   3.207 -13.934  0.00  0.00    +0.028 C 
ATOM      8  C   UNL     1     -16.593   2.263 -14.995  0.00  0.00    +0.039 C 
ATOM      9  C   UNL     1     -15.170   2.593 -15.366  0.00  0.00    -0.026 A 
ATOM     10  C   UNL     1     -14.398   1.632 -16.048  0.00  0.00    +0.018 A 
ATOM     11  C   UNL     1     -13.078   1.899 -16.439  0.00  0.00    +0.055 A 
ENDROOT
BRANCH   1  12
ATOM     12  N   UNL     1     -11.215   3.553 -16.546  0.00  0.00    +0.080 N 
ATOM     13  O   UNL     1     -10.321   3.520 -15.689  0.00  0.00    +0.041 OA
ATOM     14  O   UNL     1     -11.072   3.954 -17.712  0.00  0.00    -0.576 OA
ENDBRANCH   1  12
BRANCH   6  15
ATOM     15  C   UNL     1     -17.394   5.652 -13.253  0.00  0.00    +0.103 C 
BRANCH  15  16
ATOM     16  N   UNL     1     -17.488   5.079 -11.901  0.00  0.00    -0.312 NA
ATOM     17  H   UNL     1     -17.422   4.063 -11.949  0.00  0.00    +0.122 HD
BRANCH  16  18
ATOM     18  C   UNL     1     -16.433   5.570 -10.995  0.00  0.00    +0.048 C 
ATOM     19  C   UNL     1     -15.418   4.436 -10.786  0.00  0.00    +0.023 C 
ATOM     20  C   UNL     1     -16.985   6.121  -9.714  0.00  0.00    +0.023 C 
ENDBRANCH  16  18
ENDBRANCH  15  16
ENDBRANCH   6  15
BRANCH  11  21
ATOM     21  C   UNL     1     -12.286   0.840 -17.151  0.00  0.00    +0.197 C 
BRANCH  21  22
ATOM     22  O   UNL     1     -12.306   1.111 -18.544  0.00  0.00    -0.390 OA
ATOM     23  H   UNL     1     -12.381   2.076 -18.643  0.00  0.00    +0.210 HD
ENDBRANCH  21  22
ENDBRANCH  11  21
TORSDOF 6
ENDMDL
MODEL 5
REMARK VINA RESULT:      -5.7      7.486     10.163
REMARK  Name = min_compound927.pdb
REMARK  8 active torsions:
REMARK  status: ('A' for Active; 'I' for Inactive)
REMARK    1  A    between atoms: _1  and  _16
REMARK    2  A    between atoms: _2  and  _10
REMARK    3  A    between atoms: _9  and  _11
REMARK    4  A    between atoms: _10  and  _13
REMARK    5  A    between atoms: _11  and  _15
REMARK    6  A    between atoms: _12  and  _15
REMARK    7  A    between atoms: _12  and  _19
REMARK    8  A    between atoms: _12  and  _20
REMARK                            x       y       z     vdW  Elec       q    Type
REMARK                         _______ _______ _______ _____ _____    ______ ____
ROOT
ATOM      1  C   UNL     1     -18.350   1.038  -7.724  0.00  0.00    +0.280 A 
ATOM      2  C   UNL     1     -17.933   0.179  -6.696  0.00  0.00    +0.107 A 
ATOM      3  C   UNL     1     -16.574   0.009  -6.429  0.00  0.00    +0.037 A 
ATOM      4  N   UNL     1     -16.188  -0.802  -5.352  0.00  0.00    -0.339 N 
ATOM      5  H   UNL     1     -16.839  -1.568  -5.196  0.00  0.00    +0.146 HD
ATOM      6  C   UNL     1     -14.780  -1.228  -5.320  0.00  0.00    +0.084 C 
ATOM      7  C   UNL     1     -13.881  -0.006  -5.533  0.00  0.00    +0.028 C 
ATOM      8  C   UNL     1     -14.165   0.623  -6.892  0.00  0.00    +0.039 C 
ATOM      9  C   UNL     1     -15.642   0.771  -7.154  0.00  0.00    -0.026 A 
ATOM     10  C   UNL     1     -16.074   1.637  -8.177  0.00  0.00    +0.018 A 
ATOM     11  C   UNL     1     -17.435   1.791  -8.479  0.00  0.00    +0.055 A 
ENDROOT
BRANCH   1  12
ATOM     12  N   UNL     1     -19.780   1.094  -8.003  0.00  0.00    +0.080 N 
ATOM     13  O   UNL     1     -20.385   2.128  -7.685  0.00  0.00    +0.041 OA
ATOM     14  O   UNL     1     -20.309   0.075  -8.475  0.00  0.00    -0.576 OA
ENDBRANCH   1  12
BRANCH   6  15
ATOM     15  C   UNL     1     -14.489  -1.916  -3.957  0.00  0.00    +0.103 C 
BRANCH  15  16
ATOM     16  N   UNL     1     -15.673  -2.572  -3.378  0.00  0.00    -0.312 NA
ATOM     17  H   UNL     1     -16.082  -3.213  -4.058  0.00  0.00    +0.122 HD
BRANCH  16  18
ATOM     18  C   UNL     1     -15.366  -3.331  -2.152  0.00  0.00    +0.048 C 
ATOM     19  C   UNL     1     -15.164  -2.328  -1.007  0.00  0.00    +0.023 C 
ATOM     20  C   UNL     1     -14.213  -4.273  -2.331  0.00  0.00    +0.023 C 
ENDBRANCH  16  18
ENDBRANCH  15  16
ENDBRANCH   6  15
BRANCH  11  21
ATOM     21  C   UNL     1     -17.852   2.737  -9.568  0.00  0.00    +0.197 C 
BRANCH  21  22
ATOM     22  O   UNL     1     -18.269   3.959  -8.980  0.00  0.00    -0.390 OA
ATOM     23  H   UNL     1     -17.981   4.673  -9.575  0.00  0.00    +0.210 HD
ENDBRANCH  21  22
ENDBRANCH  11  21
TORSDOF 6
ENDMDL
MODEL 6
REMARK VINA RESULT:      -5.6      8.232     10.238
REMARK  Name = min_compound927.pdb
REMARK  8 active torsions:
REMARK  status: ('A' for Active; 'I' for Inactive)
REMARK    1  A    between atoms: _1  and  _16
REMARK    2  A    between atoms: _2  and  _10
REMARK    3  A    between atoms: _9  and  _11
REMARK    4  A    between atoms: _10  and  _13
REMARK    5  A    between atoms: _11  and  _15
REMARK    6  A    between atoms: _12  and  _15
REMARK    7  A    between atoms: _12  and  _19
REMARK    8  A    between atoms: _12  and  _20
REMARK                            x       y       z     vdW  Elec       q    Type
REMARK                         _______ _______ _______ _____ _____    ______ ____
ROOT
ATOM      1  C   UNL     1     -16.833   4.130  -4.714  0.00  0.00    +0.280 A 
ATOM      2  C   UNL     1     -16.184   2.995  -4.205  0.00  0.00    +0.107 A 
ATOM      3  C   UNL     1     -16.069   1.843  -4.985  0.00  0.00    +0.037 A 
ATOM      4  N   UNL     1     -15.356   0.747  -4.478  0.00  0.00    -0.339 N 
ATOM      5  H   UNL     1     -15.433   0.673  -3.466  0.00  0.00    +0.146 HD
ATOM      6  C   UNL     1     -15.551  -0.540  -5.164  0.00  0.00    +0.084 C 
ATOM      7  C   UNL     1     -15.386  -0.335  -6.673  0.00  0.00    +0.028 C 
ATOM      8  C   UNL     1     -16.432   0.649  -7.184  0.00  0.00    +0.039 C 
ATOM      9  C   UNL     1     -16.543   1.871  -6.307  0.00  0.00    -0.026 A 
ATOM     10  C   UNL     1     -17.185   3.020  -6.809  0.00  0.00    +0.018 A 
ATOM     11  C   UNL     1     -17.337   4.172  -6.025  0.00  0.00    +0.055 A 
ENDROOT
BRANCH   1  12
ATOM     12  N   UNL     1     -16.995   5.263  -3.810  0.00  0.00    +0.080 N 
ATOM     13  O   UNL     1     -16.072   6.089  -3.758  0.00  0.00    +0.041 OA
ATOM     14  O   UNL     1     -18.013   5.286  -3.102  0.00  0.00    -0.576 OA
ENDBRANCH   1  12
BRANCH   6  15
ATOM     15  C   UNL     1     -14.522  -1.568  -4.615  0.00  0.00    +0.103 C 
BRANCH  15  16
ATOM     16  N   UNL     1     -15.107  -2.508  -3.645  0.00  0.00    -0.312 NA
ATOM     17  H   UNL     1     -14.995  -3.465  -3.977  0.00  0.00    +0.122 HD
BRANCH  16  18
ATOM     18  C   UNL     1     -14.496  -2.406  -2.307  0.00  0.00    +0.048 C 
ATOM     19  C   UNL     1     -13.948  -3.789  -1.926  0.00  0.00    +0.023 C 
ATOM     20  C   UNL     1     -15.436  -1.833  -1.288  0.00  0.00    +0.023 C 
ENDBRANCH  16  18
ENDBRANCH  15  16
ENDBRANCH   6  15
BRANCH  11  21
ATOM     21  C   UNL     1     -18.014   5.381  -6.606  0.00  0.00    +0.197 C 
BRANCH  21  22
ATOM     22  O   UNL     1     -17.062   6.130  -7.344  0.00  0.00    -0.390 OA
ATOM     23  H   UNL     1     -17.144   7.055  -7.054  0.00  0.00    +0.210 HD
ENDBRANCH  21  22
ENDBRANCH  11  21
TORSDOF 6
ENDMDL
MODEL 7
REMARK VINA RESULT:      -5.5      7.724      9.960
REMARK  Name = min_compound927.pdb
REMARK  8 active torsions:
REMARK  status: ('A' for Active; 'I' for Inactive)
REMARK    1  A    between atoms: _1  and  _16
REMARK    2  A    between atoms: _2  and  _10
REMARK    3  A    between atoms: _9  and  _11
REMARK    4  A    between atoms: _10  and  _13
REMARK    5  A    between atoms: _11  and  _15
REMARK    6  A    between atoms: _12  and  _15
REMARK    7  A    between atoms: _12  and  _19
REMARK    8  A    between atoms: _12  and  _20
REMARK                            x       y       z     vdW  Elec       q    Type
REMARK                         _______ _______ _______ _____ _____    ______ ____
ROOT
ATOM      1  C   UNL     1     -16.866  -1.724  -3.556  0.00  0.00    +0.280 A 
ATOM      2  C   UNL     1     -17.306  -0.937  -4.632  0.00  0.00    +0.107 A 
ATOM      3  C   UNL     1     -16.389  -0.199  -5.383  0.00  0.00    +0.037 A 
ATOM      4  N   UNL     1     -16.847   0.524  -6.494  0.00  0.00    -0.339 N 
ATOM      5  H   UNL     1     -17.797   0.867  -6.366  0.00  0.00    +0.146 HD
ATOM      6  C   UNL     1     -15.937   1.544  -7.037  0.00  0.00    +0.084 C 
ATOM      7  C   UNL     1     -14.546   0.928  -7.224  0.00  0.00    +0.028 C 
ATOM      8  C   UNL     1     -13.999   0.455  -5.883  0.00  0.00    +0.039 C 
ATOM      9  C   UNL     1     -15.021  -0.320  -5.091  0.00  0.00    -0.026 A 
ATOM     10  C   UNL     1     -14.592  -1.120  -4.014  0.00  0.00    +0.018 A 
ATOM     11  C   UNL     1     -15.504  -1.840  -3.230  0.00  0.00    +0.055 A 
ENDROOT
BRANCH   1  12
ATOM     12  N   UNL     1     -17.890  -2.394  -2.763  0.00  0.00    +0.080 N 
ATOM     13  O   UNL     1     -18.221  -1.863  -1.693  0.00  0.00    +0.041 OA
ATOM     14  O   UNL     1     -18.308  -3.486  -3.177  0.00  0.00    -0.576 OA
ENDBRANCH   1  12
BRANCH   6  15
ATOM     15  C   UNL     1     -16.509   2.072  -8.382  0.00  0.00    +0.103 C 
BRANCH  15  16
ATOM     16  N   UNL     1     -15.571   2.947  -9.104  0.00  0.00    -0.312 NA
ATOM     17  H   UNL     1     -14.902   2.383  -9.626  0.00  0.00    +0.122 HD
BRANCH  16  18
ATOM     18  C   UNL     1     -16.246   3.858 -10.047  0.00  0.00    +0.048 C 
ATOM     19  C   UNL     1     -17.332   3.062 -10.786  0.00  0.00    +0.023 C 
ATOM     20  C   UNL     1     -15.283   4.550 -10.966  0.00  0.00    +0.023 C 
ENDBRANCH  16  18
ENDBRANCH  15  16
ENDBRANCH   6  15
BRANCH  11  21
ATOM     21  C   UNL     1     -15.002  -2.693  -2.100  0.00  0.00    +0.197 C 
BRANCH  21  22
ATOM     22  O   UNL     1     -15.280  -2.039  -0.872  0.00  0.00    -0.390 OA
ATOM     23  H   UNL     1     -14.940  -1.131  -0.952  0.00  0.00    +0.210 HD
ENDBRANCH  21  22
ENDBRANCH  11  21
TORSDOF 6
ENDMDL
MODEL 8
REMARK VINA RESULT:      -5.5      9.369     11.860
REMARK  Name = min_compound927.pdb
REMARK  8 active torsions:
REMARK  status: ('A' for Active; 'I' for Inactive)
REMARK    1  A    between atoms: _1  and  _16
REMARK    2  A    between atoms: _2  and  _10
REMARK    3  A    between atoms: _9  and  _11
REMARK    4  A    between atoms: _10  and  _13
REMARK    5  A    between atoms: _11  and  _15
REMARK    6  A    between atoms: _12  and  _15
REMARK    7  A    between atoms: _12  and  _19
REMARK    8  A    between atoms: _12  and  _20
REMARK                            x       y       z     vdW  Elec       q    Type
REMARK                         _______ _______ _______ _____ _____    ______ ____
ROOT
ATOM      1  C   UNL     1     -16.138  -2.720  -2.305  0.00  0.00    +0.280 A 
ATOM      2  C   UNL     1     -16.773  -1.798  -3.151  0.00  0.00    +0.107 A 
ATOM      3  C   UNL     1     -16.099  -0.649  -3.570  0.00  0.00    +0.037 A 
ATOM      4  N   UNL     1     -16.732   0.220  -4.470  0.00  0.00    -0.339 N 
ATOM      5  H   UNL     1     -17.741   0.237  -4.343  0.00  0.00    +0.146 HD
ATOM      6  C   UNL     1     -16.148   1.562  -4.611  0.00  0.00    +0.084 C 
ATOM      7  C   UNL     1     -14.636   1.432  -4.829  0.00  0.00    +0.028 C 
ATOM      8  C   UNL     1     -13.992   0.747  -3.629  0.00  0.00    +0.039 C 
ATOM      9  C   UNL     1     -14.757  -0.477  -3.192  0.00  0.00    -0.026 A 
ATOM     10  C   UNL     1     -14.128  -1.414  -2.349  0.00  0.00    +0.018 A 
ATOM     11  C   UNL     1     -14.805  -2.555  -1.894  0.00  0.00    +0.055 A 
ENDROOT
BRANCH   1  12
ATOM     12  N   UNL     1     -16.935  -3.848  -1.836  0.00  0.00    +0.080 N 
ATOM     13  O   UNL     1     -17.586  -3.694  -0.793  0.00  0.00    +0.041 OA
ATOM     14  O   UNL     1     -16.852  -4.909  -2.475  0.00  0.00    -0.576 OA
ENDBRANCH   1  12
BRANCH   6  15
ATOM     15  C   UNL     1     -16.831   2.292  -5.801  0.00  0.00    +0.103 C 
BRANCH  15  16
ATOM     16  N   UNL     1     -17.642   1.393  -6.639  0.00  0.00    -0.312 NA
ATOM     17  H   UNL     1     -18.577   1.780  -6.760  0.00  0.00    +0.122 HD
BRANCH  16  18
ATOM     18  C   UNL     1     -17.056   1.170  -7.974  0.00  0.00    +0.048 C 
ATOM     19  C   UNL     1     -16.520  -0.269  -8.025  0.00  0.00    +0.023 C 
ATOM     20  C   UNL     1     -16.029   2.203  -8.331  0.00  0.00    +0.023 C 
ENDBRANCH  16  18
ENDBRANCH  15  16
ENDBRANCH   6  15
BRANCH  11  21
ATOM     21  C   UNL     1     -14.091  -3.537  -1.008  0.00  0.00    +0.197 C 
BRANCH  21  22
ATOM     22  O   UNL     1     -12.724  -3.168  -0.924  0.00  0.00    -0.390 OA
ATOM     23  H   UNL     1     -12.399  -3.479  -0.061  0.00  0.00    +0.210 HD
ENDBRANCH  21  22
ENDBRANCH  11  21
TORSDOF 6
ENDMDL
MODEL 9
REMARK VINA RESULT:      -5.5      6.393      9.272
REMARK  Name = min_compound927.pdb
REMARK  8 active torsions:
REMARK  status: ('A' for Active; 'I' for Inactive)
REMARK    1  A    between atoms: _1  and  _16
REMARK    2  A    between atoms: _2  and  _10
REMARK    3  A    between atoms: _9  and  _11
REMARK    4  A    between atoms: _10  and  _13
REMARK    5  A    between atoms: _11  and  _15
REMARK    6  A    between atoms: _12  and  _15
REMARK    7  A    between atoms: _12  and  _19
REMARK    8  A    between atoms: _12  and  _20
REMARK                            x       y       z     vdW  Elec       q    Type
REMARK                         _______ _______ _______ _____ _____    ______ ____
ROOT
ATOM      1  C   UNL     1     -17.544   3.953  -7.500  0.00  0.00    +0.280 A 
ATOM      2  C   UNL     1     -17.655   3.091  -6.399  0.00  0.00    +0.107 A 
ATOM      3  C   UNL     1     -17.192   1.776  -6.486  0.00  0.00    +0.037 A 
ATOM      4  N   UNL     1     -17.253   0.957  -5.349  0.00  0.00    -0.339 N 
ATOM      5  H   UNL     1     -18.049   1.181  -4.757  0.00  0.00    +0.146 HD
ATOM      6  C   UNL     1     -17.087  -0.487  -5.569  0.00  0.00    +0.084 C 
ATOM      7  C   UNL     1     -15.850  -0.724  -6.442  0.00  0.00    +0.028 C 
ATOM      8  C   UNL     1     -16.027  -0.046  -7.795  0.00  0.00    +0.039 C 
ATOM      9  C   UNL     1     -16.547   1.363  -7.664  0.00  0.00    -0.026 A 
ATOM     10  C   UNL     1     -16.434   2.241  -8.759  0.00  0.00    +0.018 A 
ATOM     11  C   UNL     1     -16.926   3.553  -8.697  0.00  0.00    +0.055 A 
ENDROOT
BRANCH   1  12
ATOM     12  N   UNL     1     -18.131   5.281  -7.365  0.00  0.00    +0.080 N 
ATOM     13  O   UNL     1     -17.416   6.177  -6.893  0.00  0.00    +0.041 OA
ATOM     14  O   UNL     1     -19.329   5.408  -7.664  0.00  0.00    -0.576 OA
ENDBRANCH   1  12
BRANCH   6  15
ATOM     15  C   UNL     1     -16.955  -1.199  -4.193  0.00  0.00    +0.103 C 
BRANCH  15  16
ATOM     16  N   UNL     1     -15.594  -1.692  -3.928  0.00  0.00    -0.312 NA
ATOM     17  H   UNL     1     -14.994  -1.506  -4.732  0.00  0.00    +0.122 HD
BRANCH  16  18
ATOM     18  C   UNL     1     -14.980  -1.074  -2.738  0.00  0.00    +0.048 C 
ATOM     19  C   UNL     1     -14.171   0.148  -3.199  0.00  0.00    +0.023 C 
ATOM     20  C   UNL     1     -14.179  -2.052  -1.931  0.00  0.00    +0.023 C 
ENDBRANCH  16  18
ENDBRANCH  15  16
ENDBRANCH   6  15
BRANCH  11  21
ATOM     21  C   UNL     1     -16.770   4.461  -9.884  0.00  0.00    +0.197 C 
BRANCH  21  22
ATOM     22  O   UNL     1     -15.932   5.547  -9.523  0.00  0.00    -0.390 OA
ATOM     23  H   UNL     1     -16.496   6.340  -9.490  0.00  0.00    +0.210 HD
ENDBRANCH  21  22
ENDBRANCH  11  21
TORSDOF 6
ENDMDL
