MODEL 1
REMARK VINA RESULT:      -7.8      0.000      0.000
REMARK  Name = min_compound990.pdb
REMARK  2 active torsions:
REMARK  status: ('A' for Active; 'I' for Inactive)
REMARK    1  A    between atoms: _3  and  _24
REMARK    2  A    between atoms: _10  and  _24
REMARK                            x       y       z     vdW  Elec       q    Type
REMARK                         _______ _______ _______ _____ _____    ______ ____
ROOT
ATOM      1  S   UNL     1     -14.233   4.460 -17.537  0.00  0.00    +0.061 S 
ATOM      2  O   UNL     1     -15.267   3.650 -18.145  0.00  0.00    -0.153 OA
ATOM      3  O   UNL     1     -13.484   5.408 -18.335  0.00  0.00    -0.153 OA
ENDROOT
BRANCH   1   4
ATOM      4  C   UNL     1     -13.018   3.377 -16.813  0.00  0.00    +0.106 A 
ATOM      5  C   UNL     1     -13.000   2.016 -17.118  0.00  0.00    +0.034 A 
ATOM      6  C   UNL     1     -11.990   1.195 -16.586  0.00  0.00    -0.025 A 
ATOM      7  C   UNL     1     -11.991  -0.278 -16.906  0.00  0.00    +0.038 C 
ATOM      8  C   UNL     1     -11.074  -1.065 -15.975  0.00  0.00    +0.023 C 
ATOM      9  C   UNL     1      -9.742  -0.342 -15.845  0.00  0.00    +0.102 C 
ATOM     10  N   UNL     1      -9.946   0.969 -15.241  0.00  0.00    -0.344 N 
ATOM     11  H   UNL     1      -9.084   1.490 -15.103  0.00  0.00    +0.146 HD
ATOM     12  C   UNL     1     -10.953   1.759 -15.817  0.00  0.00    +0.030 A 
ATOM     13  C   UNL     1     -11.007   3.122 -15.502  0.00  0.00    +0.025 A 
ATOM     14  C   UNL     1     -12.024   3.933 -16.005  0.00  0.00    +0.030 A 
ENDBRANCH   1   4
BRANCH   1  24
ATOM     15  C   UNL     1     -15.778   4.655 -15.207  0.00  0.00    +0.083 C 
ATOM     16  C   UNL     1     -17.244   4.998 -15.630  0.00  0.00    +0.008 C 
ATOM     17  C   UNL     1     -18.327   4.416 -14.769  0.00  0.00    +0.005 C 
ATOM     18  C   UNL     1     -17.441   3.897 -13.529  0.00  0.00    +0.000 C 
ATOM     19  C   UNL     1     -16.698   2.553 -13.980  0.00  0.00    +0.002 C 
ATOM     20  C   UNL     1     -17.517   6.221 -16.455  0.00  0.00    +0.006 C 
ATOM     21  C   UNL     1     -16.436   6.802 -17.315  0.00  0.00    +0.017 C 
ATOM     22  C   UNL     1     -15.194   6.689 -16.317  0.00  0.00    +0.110 C 
ATOM     23  C   UNL     1     -15.615   3.134 -14.841  0.00  0.00    +0.021 C 
ATOM     24  N   UNL     1     -14.849   5.254 -16.176  0.00  0.00    -0.173 NA
ENDBRANCH   1  24
TORSDOF 2
ENDMDL
MODEL 2
REMARK VINA RESULT:      -7.3      3.185      4.742
REMARK  Name = min_compound990.pdb
REMARK  2 active torsions:
REMARK  status: ('A' for Active; 'I' for Inactive)
REMARK    1  A    between atoms: _3  and  _24
REMARK    2  A    between atoms: _10  and  _24
REMARK                            x       y       z     vdW  Elec       q    Type
REMARK                         _______ _______ _______ _____ _____    ______ ____
ROOT
ATOM      1  S   UNL     1     -14.666   4.372 -18.244  0.00  0.00    +0.061 S 
ATOM      2  O   UNL     1     -14.635   5.754 -17.818  0.00  0.00    -0.153 OA
ATOM      3  O   UNL     1     -15.888   3.602 -18.134  0.00  0.00    -0.153 OA
ENDROOT
BRANCH   1   4
ATOM      4  C   UNL     1     -13.444   3.467 -17.319  0.00  0.00    +0.106 A 
ATOM      5  C   UNL     1     -13.150   2.138 -17.628  0.00  0.00    +0.034 A 
ATOM      6  C   UNL     1     -12.134   1.466 -16.927  0.00  0.00    -0.025 A 
ATOM      7  C   UNL     1     -11.839   0.025 -17.256  0.00  0.00    +0.038 C 
ATOM      8  C   UNL     1     -10.990  -0.643 -16.178  0.00  0.00    +0.023 C 
ATOM      9  C   UNL     1      -9.839   0.274 -15.797  0.00  0.00    +0.102 C 
ATOM     10  N   UNL     1     -10.358   1.512 -15.229  0.00  0.00    -0.344 N 
ATOM     11  H   UNL     1      -9.631   2.156 -14.930  0.00  0.00    +0.146 HD
ATOM     12  C   UNL     1     -11.359   2.156 -15.974  0.00  0.00    +0.030 A 
ATOM     13  C   UNL     1     -11.688   3.480 -15.661  0.00  0.00    +0.025 A 
ATOM     14  C   UNL     1     -12.715   4.140 -16.335  0.00  0.00    +0.030 A 
ENDBRANCH   1   4
BRANCH   1  24
ATOM     15  C   UNL     1     -13.202   5.228 -20.474  0.00  0.00    +0.083 C 
ATOM     16  C   UNL     1     -14.086   6.246 -21.267  0.00  0.00    +0.008 C 
ATOM     17  C   UNL     1     -13.347   7.358 -21.954  0.00  0.00    +0.005 C 
ATOM     18  C   UNL     1     -11.838   6.815 -21.808  0.00  0.00    +0.000 C 
ATOM     19  C   UNL     1     -11.366   7.064 -20.298  0.00  0.00    +0.002 C 
ATOM     20  C   UNL     1     -15.445   5.838 -21.751  0.00  0.00    +0.006 C 
ATOM     21  C   UNL     1     -16.183   4.728 -21.065  0.00  0.00    +0.017 C 
ATOM     22  C   UNL     1     -14.989   3.688 -20.853  0.00  0.00    +0.110 C 
ATOM     23  C   UNL     1     -12.105   5.953 -19.611  0.00  0.00    +0.021 C 
ATOM     24  N   UNL     1     -14.077   4.242 -19.824  0.00  0.00    -0.173 NA
ENDBRANCH   1  24
TORSDOF 2
ENDMDL
MODEL 3
REMARK VINA RESULT:      -7.1      1.749      2.083
REMARK  Name = min_compound990.pdb
REMARK  2 active torsions:
REMARK  status: ('A' for Active; 'I' for Inactive)
REMARK    1  A    between atoms: _3  and  _24
REMARK    2  A    between atoms: _10  and  _24
REMARK                            x       y       z     vdW  Elec       q    Type
REMARK                         _______ _______ _______ _____ _____    ______ ____
ROOT
ATOM      1  S   UNL     1     -15.979   3.496 -16.168  0.00  0.00    +0.061 S 
ATOM      2  O   UNL     1     -16.682   2.580 -15.298  0.00  0.00    -0.153 OA
ATOM      3  O   UNL     1     -16.383   3.644 -17.552  0.00  0.00    -0.153 OA
ENDROOT
BRANCH   1   4
ATOM      4  C   UNL     1     -14.262   3.025 -16.218  0.00  0.00    +0.106 A 
ATOM      5  C   UNL     1     -13.889   1.694 -16.409  0.00  0.00    +0.034 A 
ATOM      6  C   UNL     1     -12.529   1.358 -16.511  0.00  0.00    -0.025 A 
ATOM      7  C   UNL     1     -12.136  -0.086 -16.698  0.00  0.00    +0.038 C 
ATOM      8  C   UNL     1     -10.653  -0.314 -16.422  0.00  0.00    +0.023 C 
ATOM      9  C   UNL     1      -9.836   0.765 -17.116  0.00  0.00    +0.102 C 
ATOM     10  N   UNL     1     -10.178   2.073 -16.572  0.00  0.00    -0.344 N 
ATOM     11  H   UNL     1      -9.642   2.834 -16.980  0.00  0.00    +0.146 HD
ATOM     12  C   UNL     1     -11.548   2.370 -16.505  0.00  0.00    +0.030 A 
ATOM     13  C   UNL     1     -11.943   3.695 -16.287  0.00  0.00    +0.025 A 
ATOM     14  C   UNL     1     -13.291   4.027 -16.156  0.00  0.00    +0.030 A 
ENDBRANCH   1   4
BRANCH   1  24
ATOM     15  C   UNL     1     -15.935   5.276 -14.005  0.00  0.00    +0.083 C 
ATOM     16  C   UNL     1     -17.414   5.539 -13.570  0.00  0.00    +0.008 C 
ATOM     17  C   UNL     1     -17.634   5.763 -12.102  0.00  0.00    +0.005 C 
ATOM     18  C   UNL     1     -16.107   5.937 -11.620  0.00  0.00    +0.000 C 
ATOM     19  C   UNL     1     -15.434   4.486 -11.577  0.00  0.00    +0.002 C 
ATOM     20  C   UNL     1     -18.404   6.066 -14.566  0.00  0.00    +0.006 C 
ATOM     21  C   UNL     1     -18.184   5.842 -16.032  0.00  0.00    +0.017 C 
ATOM     22  C   UNL     1     -16.617   6.136 -16.127  0.00  0.00    +0.110 C 
ATOM     23  C   UNL     1     -15.214   4.261 -13.044  0.00  0.00    +0.021 C 
ATOM     24  N   UNL     1     -15.901   5.027 -15.453  0.00  0.00    -0.173 NA
ENDBRANCH   1  24
TORSDOF 2
ENDMDL
MODEL 4
REMARK VINA RESULT:      -7.0      2.417      6.935
REMARK  Name = min_compound990.pdb
REMARK  2 active torsions:
REMARK  status: ('A' for Active; 'I' for Inactive)
REMARK    1  A    between atoms: _3  and  _24
REMARK    2  A    between atoms: _10  and  _24
REMARK                            x       y       z     vdW  Elec       q    Type
REMARK                         _______ _______ _______ _____ _____    ______ ____
ROOT
ATOM      1  S   UNL     1     -14.146   3.130 -16.033  0.00  0.00    +0.061 S 
ATOM      2  O   UNL     1     -15.138   2.100 -15.815  0.00  0.00    -0.153 OA
ATOM      3  O   UNL     1     -13.318   3.589 -14.937  0.00  0.00    -0.153 OA
ENDROOT
BRANCH   1   4
ATOM      4  C   UNL     1     -14.965   4.583 -16.656  0.00  0.00    +0.106 A 
ATOM      5  C   UNL     1     -14.764   5.829 -16.062  0.00  0.00    +0.034 A 
ATOM      6  C   UNL     1     -15.370   6.971 -16.614  0.00  0.00    -0.025 A 
ATOM      7  C   UNL     1     -15.162   8.310 -15.952  0.00  0.00    +0.038 C 
ATOM      8  C   UNL     1     -16.163   9.351 -16.444  0.00  0.00    +0.023 C 
ATOM      9  C   UNL     1     -16.256   9.287 -17.961  0.00  0.00    +0.102 C 
ATOM     10  N   UNL     1     -16.756   7.982 -18.374  0.00  0.00    -0.344 N 
ATOM     11  H   UNL     1     -16.865   7.890 -19.380  0.00  0.00    +0.146 HD
ATOM     12  C   UNL     1     -16.108   6.872 -17.809  0.00  0.00    +0.030 A 
ATOM     13  C   UNL     1     -16.319   5.608 -18.374  0.00  0.00    +0.025 A 
ATOM     14  C   UNL     1     -15.743   4.469 -17.811  0.00  0.00    +0.030 A 
ENDBRANCH   1   4
BRANCH   1  24
ATOM     15  C   UNL     1     -12.217   1.569 -17.334  0.00  0.00    +0.083 C 
ATOM     16  C   UNL     1     -10.807   2.069 -16.877  0.00  0.00    +0.008 C 
ATOM     17  C   UNL     1      -9.741   1.017 -16.775  0.00  0.00    +0.005 C 
ATOM     18  C   UNL     1     -10.490  -0.204 -17.512  0.00  0.00    +0.000 C 
ATOM     19  C   UNL     1     -11.569  -0.808 -16.496  0.00  0.00    +0.002 C 
ATOM     20  C   UNL     1     -10.426   3.507 -17.068  0.00  0.00    +0.006 C 
ATOM     21  C   UNL     1     -11.490   4.557 -17.170  0.00  0.00    +0.017 C 
ATOM     22  C   UNL     1     -12.536   3.804 -18.114  0.00  0.00    +0.110 C 
ATOM     23  C   UNL     1     -12.635   0.244 -16.598  0.00  0.00    +0.021 C 
ATOM     24  N   UNL     1     -13.149   2.705 -17.332  0.00  0.00    -0.173 NA
ENDBRANCH   1  24
TORSDOF 2
ENDMDL
MODEL 5
REMARK VINA RESULT:      -7.0      3.770      6.713
REMARK  Name = min_compound990.pdb
REMARK  2 active torsions:
REMARK  status: ('A' for Active; 'I' for Inactive)
REMARK    1  A    between atoms: _3  and  _24
REMARK    2  A    between atoms: _10  and  _24
REMARK                            x       y       z     vdW  Elec       q    Type
REMARK                         _______ _______ _______ _____ _____    ______ ____
ROOT
ATOM      1  S   UNL     1     -13.674   3.357 -17.703  0.00  0.00    +0.061 S 
ATOM      2  O   UNL     1     -14.294   2.440 -16.772  0.00  0.00    -0.153 OA
ATOM      3  O   UNL     1     -13.824   4.788 -17.529  0.00  0.00    -0.153 OA
ENDROOT
BRANCH   1   4
ATOM      4  C   UNL     1     -14.287   3.006 -19.338  0.00  0.00    +0.106 A 
ATOM      5  C   UNL     1     -15.394   3.685 -19.849  0.00  0.00    +0.034 A 
ATOM      6  C   UNL     1     -15.817   3.437 -21.166  0.00  0.00    -0.025 A 
ATOM      7  C   UNL     1     -17.026   4.162 -21.701  0.00  0.00    +0.038 C 
ATOM      8  C   UNL     1     -17.557   3.519 -22.979  0.00  0.00    +0.023 C 
ATOM      9  C   UNL     1     -16.398   3.229 -23.920  0.00  0.00    +0.102 C 
ATOM     10  N   UNL     1     -15.486   2.272 -23.305  0.00  0.00    -0.344 N 
ATOM     11  H   UNL     1     -14.703   2.019 -23.900  0.00  0.00    +0.146 HD
ATOM     12  C   UNL     1     -15.078   2.571 -21.995  0.00  0.00    +0.030 A 
ATOM     13  C   UNL     1     -13.986   1.882 -21.454  0.00  0.00    +0.025 A 
ATOM     14  C   UNL     1     -13.582   2.104 -20.137  0.00  0.00    +0.030 A 
ENDBRANCH   1   4
BRANCH   1  24
ATOM     15  C   UNL     1     -11.378   1.803 -17.296  0.00  0.00    +0.083 C 
ATOM     16  C   UNL     1     -10.800   2.161 -15.888  0.00  0.00    +0.008 C 
ATOM     17  C   UNL     1     -10.140   1.034 -15.146  0.00  0.00    +0.005 C 
ATOM     18  C   UNL     1     -10.051  -0.056 -16.328  0.00  0.00    +0.000 C 
ATOM     19  C   UNL     1     -11.510  -0.682 -16.535  0.00  0.00    +0.002 C 
ATOM     20  C   UNL     1     -10.444   3.581 -15.564  0.00  0.00    +0.006 C 
ATOM     21  C   UNL     1     -11.103   4.706 -16.305  0.00  0.00    +0.017 C 
ATOM     22  C   UNL     1     -11.068   4.120 -17.790  0.00  0.00    +0.110 C 
ATOM     23  C   UNL     1     -12.169   0.444 -17.277  0.00  0.00    +0.021 C 
ATOM     24  N   UNL     1     -12.029   2.994 -17.861  0.00  0.00    -0.173 NA
ENDBRANCH   1  24
TORSDOF 2
ENDMDL
MODEL 6
REMARK VINA RESULT:      -7.0      1.855      3.149
REMARK  Name = min_compound990.pdb
REMARK  2 active torsions:
REMARK  status: ('A' for Active; 'I' for Inactive)
REMARK    1  A    between atoms: _3  and  _24
REMARK    2  A    between atoms: _10  and  _24
REMARK                            x       y       z     vdW  Elec       q    Type
REMARK                         _______ _______ _______ _____ _____    ______ ____
ROOT
ATOM      1  S   UNL     1     -12.868   5.336 -18.246  0.00  0.00    +0.061 S 
ATOM      2  O   UNL     1     -12.436   5.249 -19.624  0.00  0.00    -0.153 OA
ATOM      3  O   UNL     1     -12.626   6.541 -17.479  0.00  0.00    -0.153 OA
ENDROOT
BRANCH   1   4
ATOM      4  C   UNL     1     -12.097   4.020 -17.326  0.00  0.00    +0.106 A 
ATOM      5  C   UNL     1     -12.196   2.695 -17.751  0.00  0.00    +0.034 A 
ATOM      6  C   UNL     1     -11.523   1.683 -17.045  0.00  0.00    -0.025 A 
ATOM      7  C   UNL     1     -11.654   0.252 -17.502  0.00  0.00    +0.038 C 
ATOM      8  C   UNL     1     -11.180  -0.732 -16.437  0.00  0.00    +0.023 C 
ATOM      9  C   UNL     1      -9.851  -0.261 -15.867  0.00  0.00    +0.102 C 
ATOM     10  N   UNL     1     -10.021   1.030 -15.213  0.00  0.00    -0.344 N 
ATOM     11  H   UNL     1      -9.168   1.385 -14.788  0.00  0.00    +0.146 HD
ATOM     12  C   UNL     1     -10.684   2.014 -15.964  0.00  0.00    +0.030 A 
ATOM     13  C   UNL     1     -10.619   3.347 -15.539  0.00  0.00    +0.025 A 
ATOM     14  C   UNL     1     -11.310   4.349 -16.220  0.00  0.00    +0.030 A 
ENDBRANCH   1   4
BRANCH   1  24
ATOM     15  C   UNL     1     -15.614   5.800 -18.551  0.00  0.00    +0.083 C 
ATOM     16  C   UNL     1     -16.099   6.637 -17.322  0.00  0.00    +0.008 C 
ATOM     17  C   UNL     1     -17.201   7.619 -17.592  0.00  0.00    +0.005 C 
ATOM     18  C   UNL     1     -17.634   7.145 -19.069  0.00  0.00    +0.000 C 
ATOM     19  C   UNL     1     -16.533   7.676 -20.103  0.00  0.00    +0.002 C 
ATOM     20  C   UNL     1     -15.882   6.117 -15.931  0.00  0.00    +0.006 C 
ATOM     21  C   UNL     1     -14.782   5.136 -15.661  0.00  0.00    +0.017 C 
ATOM     22  C   UNL     1     -14.944   4.179 -16.929  0.00  0.00    +0.110 C 
ATOM     23  C   UNL     1     -15.431   6.694 -19.832  0.00  0.00    +0.021 C 
ATOM     24  N   UNL     1     -14.506   4.931 -18.129  0.00  0.00    -0.173 NA
ENDBRANCH   1  24
TORSDOF 2
ENDMDL
MODEL 7
REMARK VINA RESULT:      -6.9      5.790      7.787
REMARK  Name = min_compound990.pdb
REMARK  2 active torsions:
REMARK  status: ('A' for Active; 'I' for Inactive)
REMARK    1  A    between atoms: _3  and  _24
REMARK    2  A    between atoms: _10  and  _24
REMARK                            x       y       z     vdW  Elec       q    Type
REMARK                         _______ _______ _______ _____ _____    ______ ____
ROOT
ATOM      1  S   UNL     1     -18.307   4.163  -9.852  0.00  0.00    +0.061 S 
ATOM      2  O   UNL     1     -19.186   3.016  -9.912  0.00  0.00    -0.153 OA
ATOM      3  O   UNL     1     -18.849   5.503  -9.945  0.00  0.00    -0.153 OA
ENDROOT
BRANCH   1   4
ATOM      4  C   UNL     1     -17.117   4.034 -11.170  0.00  0.00    +0.106 A 
ATOM      5  C   UNL     1     -17.410   3.320 -12.333  0.00  0.00    +0.034 A 
ATOM      6  C   UNL     1     -16.480   3.290 -13.386  0.00  0.00    -0.025 A 
ATOM      7  C   UNL     1     -16.799   2.499 -14.629  0.00  0.00    +0.038 C 
ATOM      8  C   UNL     1     -15.561   2.270 -15.492  0.00  0.00    +0.023 C 
ATOM      9  C   UNL     1     -14.790   3.574 -15.628  0.00  0.00    +0.102 C 
ATOM     10  N   UNL     1     -14.325   4.014 -14.319  0.00  0.00    -0.344 N 
ATOM     11  H   UNL     1     -13.777   4.870 -14.350  0.00  0.00    +0.146 HD
ATOM     12  C   UNL     1     -15.294   4.045 -13.303  0.00  0.00    +0.030 A 
ATOM     13  C   UNL     1     -15.009   4.732 -12.118  0.00  0.00    +0.025 A 
ATOM     14  C   UNL     1     -15.917   4.740 -11.059  0.00  0.00    +0.030 A 
ENDBRANCH   1   4
BRANCH   1  24
ATOM     15  C   UNL     1     -16.935   2.811  -7.818  0.00  0.00    +0.083 C 
ATOM     16  C   UNL     1     -17.954   2.507  -6.671  0.00  0.00    +0.008 C 
ATOM     17  C   UNL     1     -17.731   1.227  -5.920  0.00  0.00    +0.005 C 
ATOM     18  C   UNL     1     -16.267   0.839  -6.467  0.00  0.00    +0.000 C 
ATOM     19  C   UNL     1     -16.430   0.261  -7.951  0.00  0.00    +0.002 C 
ATOM     20  C   UNL     1     -18.715   3.629  -6.030  0.00  0.00    +0.006 C 
ATOM     21  C   UNL     1     -18.938   4.908  -6.780  0.00  0.00    +0.017 C 
ATOM     22  C   UNL     1     -17.494   5.102  -7.436  0.00  0.00    +0.110 C 
ATOM     23  C   UNL     1     -16.653   1.541  -8.702  0.00  0.00    +0.021 C 
ATOM     24  N   UNL     1     -17.322   4.064  -8.480  0.00  0.00    -0.173 NA
ENDBRANCH   1  24
TORSDOF 2
ENDMDL
MODEL 8
REMARK VINA RESULT:      -6.9      2.752      3.911
REMARK  Name = min_compound990.pdb
REMARK  2 active torsions:
REMARK  status: ('A' for Active; 'I' for Inactive)
REMARK    1  A    between atoms: _3  and  _24
REMARK    2  A    between atoms: _10  and  _24
REMARK                            x       y       z     vdW  Elec       q    Type
REMARK                         _______ _______ _______ _____ _____    ______ ____
ROOT
ATOM      1  S   UNL     1     -12.607   5.481 -18.401  0.00  0.00    +0.061 S 
ATOM      2  O   UNL     1     -11.930   5.516 -19.679  0.00  0.00    -0.153 OA
ATOM      3  O   UNL     1     -12.588   6.641 -17.533  0.00  0.00    -0.153 OA
ENDROOT
BRANCH   1   4
ATOM      4  C   UNL     1     -11.926   4.149 -17.435  0.00  0.00    +0.106 A 
ATOM      5  C   UNL     1     -12.105   2.820 -17.821  0.00  0.00    +0.034 A 
ATOM      6  C   UNL     1     -11.501   1.791 -17.079  0.00  0.00    -0.025 A 
ATOM      7  C   UNL     1     -11.717   0.357 -17.494  0.00  0.00    +0.038 C 
ATOM      8  C   UNL     1     -11.313  -0.621 -16.395  0.00  0.00    +0.023 C 
ATOM      9  C   UNL     1      -9.962  -0.216 -15.826  0.00  0.00    +0.102 C 
ATOM     10  N   UNL     1     -10.057   1.102 -15.213  0.00  0.00    -0.344 N 
ATOM     11  H   UNL     1      -9.187   1.416 -14.790  0.00  0.00    +0.146 HD
ATOM     12  C   UNL     1     -10.651   2.102 -16.000  0.00  0.00    +0.030 A 
ATOM     13  C   UNL     1     -10.508   3.440 -15.614  0.00  0.00    +0.025 A 
ATOM     14  C   UNL     1     -11.129   4.462 -16.332  0.00  0.00    +0.030 A 
ENDBRANCH   1   4
BRANCH   1  24
ATOM     15  C   UNL     1     -14.719   4.285 -19.801  0.00  0.00    +0.083 C 
ATOM     16  C   UNL     1     -15.295   5.343 -20.798  0.00  0.00    +0.008 C 
ATOM     17  C   UNL     1     -15.815   4.803 -22.098  0.00  0.00    +0.005 C 
ATOM     18  C   UNL     1     -15.821   3.229 -21.758  0.00  0.00    +0.000 C 
ATOM     19  C   UNL     1     -14.311   2.702 -21.826  0.00  0.00    +0.002 C 
ATOM     20  C   UNL     1     -15.787   6.664 -20.285  0.00  0.00    +0.006 C 
ATOM     21  C   UNL     1     -15.267   7.204 -18.986  0.00  0.00    +0.017 C 
ATOM     22  C   UNL     1     -15.279   5.871 -18.105  0.00  0.00    +0.110 C 
ATOM     23  C   UNL     1     -13.791   3.242 -20.526  0.00  0.00    +0.021 C 
ATOM     24  N   UNL     1     -14.209   4.979 -18.610  0.00  0.00    -0.173 NA
ENDBRANCH   1  24
TORSDOF 2
ENDMDL
MODEL 9
REMARK VINA RESULT:      -6.9      1.148      2.218
REMARK  Name = min_compound990.pdb
REMARK  2 active torsions:
REMARK  status: ('A' for Active; 'I' for Inactive)
REMARK    1  A    between atoms: _3  and  _24
REMARK    2  A    between atoms: _10  and  _24
REMARK                            x       y       z     vdW  Elec       q    Type
REMARK                         _______ _______ _______ _____ _____    ______ ____
ROOT
ATOM      1  S   UNL     1     -14.405   4.500 -17.024  0.00  0.00    +0.061 S 
ATOM      2  O   UNL     1     -14.657   4.268 -18.429  0.00  0.00    -0.153 OA
ATOM      3  O   UNL     1     -14.016   5.816 -16.559  0.00  0.00    -0.153 OA
ENDROOT
BRANCH   1   4
ATOM      4  C   UNL     1     -13.108   3.401 -16.492  0.00  0.00    +0.106 A 
ATOM      5  C   UNL     1     -13.151   2.041 -16.799  0.00  0.00    +0.034 A 
ATOM      6  C   UNL     1     -12.083   1.207 -16.425  0.00  0.00    -0.025 A 
ATOM      7  C   UNL     1     -12.149  -0.265 -16.744  0.00  0.00    +0.038 C 
ATOM      8  C   UNL     1     -11.112  -1.065 -15.961  0.00  0.00    +0.023 C 
ATOM      9  C   UNL     1      -9.767  -0.358 -16.030  0.00  0.00    +0.102 C 
ATOM     10  N   UNL     1      -9.863   0.953 -15.401  0.00  0.00    -0.344 N 
ATOM     11  H   UNL     1      -8.985   1.464 -15.392  0.00  0.00    +0.146 HD
ATOM     12  C   UNL     1     -10.936   1.756 -15.818  0.00  0.00    +0.030 A 
ATOM     13  C   UNL     1     -10.926   3.119 -15.497  0.00  0.00    +0.025 A 
ATOM     14  C   UNL     1     -11.998   3.943 -15.840  0.00  0.00    +0.030 A 
ENDBRANCH   1   4
BRANCH   1  24
ATOM     15  C   UNL     1     -17.004   4.665 -15.991  0.00  0.00    +0.083 C 
ATOM     16  C   UNL     1     -16.964   5.595 -14.735  0.00  0.00    +0.008 C 
ATOM     17  C   UNL     1     -18.188   6.430 -14.499  0.00  0.00    +0.005 C 
ATOM     18  C   UNL     1     -19.196   5.743 -15.550  0.00  0.00    +0.000 C 
ATOM     19  C   UNL     1     -18.799   6.246 -17.017  0.00  0.00    +0.002 C 
ATOM     20  C   UNL     1     -16.046   5.270 -13.593  0.00  0.00    +0.006 C 
ATOM     21  C   UNL     1     -14.823   4.436 -13.829  0.00  0.00    +0.017 C 
ATOM     22  C   UNL     1     -15.429   3.321 -14.800  0.00  0.00    +0.110 C 
ATOM     23  C   UNL     1     -17.575   5.411 -17.253  0.00  0.00    +0.021 C 
ATOM     24  N   UNL     1     -15.719   3.961 -16.105  0.00  0.00    -0.173 NA
ENDBRANCH   1  24
TORSDOF 2
ENDMDL
