MODEL 1
REMARK VINA RESULT:      -8.0      0.000      0.000
REMARK  Name = min_compound994.pdb
REMARK  6 active torsions:
REMARK  status: ('A' for Active; 'I' for Inactive)
REMARK    1  A    between atoms: _1  and  _12
REMARK    2  A    between atoms: _2  and  _21
REMARK    3  A    between atoms: _8  and  _23
REMARK    4  A    between atoms: _9  and  _23
REMARK    5  A    between atoms: _10  and  _24
REMARK    6  A    between atoms: _24  and  _26
REMARK                            x       y       z     vdW  Elec       q    Type
REMARK                         _______ _______ _______ _____ _____    ______ ____
ROOT
ATOM      1  C   UNL     1     -13.247   2.053 -16.322  0.00  0.00    +0.134 A 
ATOM      2  C   UNL     1     -12.057   1.287 -16.580  0.00  0.00    +0.028 A 
ATOM      3  C   UNL     1     -12.048  -0.123 -16.377  0.00  0.00    +0.012 A 
ATOM      4  C   UNL     1     -10.944  -0.936 -16.638  0.00  0.00    +0.001 A 
ATOM      5  C   UNL     1      -9.786  -0.360 -17.114  0.00  0.00    +0.001 A 
ATOM      6  C   UNL     1      -9.747   1.020 -17.311  0.00  0.00    +0.012 A 
ATOM      7  C   UNL     1     -10.849   1.885 -17.054  0.00  0.00    +0.028 A 
ATOM      8  C   UNL     1     -10.728   3.295 -17.283  0.00  0.00    +0.132 A 
ATOM      9  C   UNL     1     -11.921   4.060 -17.034  0.00  0.00    +0.029 A 
ATOM     10  C   UNL     1     -11.886   5.456 -17.278  0.00  0.00    +0.013 A 
ATOM     11  C   UNL     1     -12.994   6.288 -17.176  0.00  0.00    +0.017 A 
ATOM     12  C   UNL     1     -14.212   5.754 -16.788  0.00  0.00    +0.081 A 
ATOM     13  C   UNL     1     -14.293   4.397 -16.407  0.00  0.00    +0.057 A 
ATOM     14  C   UNL     1     -13.160   3.487 -16.572  0.00  0.00    +0.050 A 
ENDROOT
BRANCH  12  15
ATOM     15  C   UNL     1     -15.391   6.652 -16.936  0.00  0.00    +0.339 C 
ATOM     16  O   UNL     1     -16.500   6.266 -17.281  0.00  0.00    -0.245 OA
BRANCH  15  17
ATOM     17  O   UNL     1     -15.165   7.923 -16.526  0.00  0.00    -0.477 OA
ATOM     18  H   UNL     1     -15.917   8.498 -16.815  0.00  0.00    +0.295 HD
ENDBRANCH  15  17
ENDBRANCH  12  15
BRANCH  13  19
ATOM     19  N   UNL     1     -15.548   3.850 -15.929  0.00  0.00    -0.313 N 
ATOM     20  H   UNL     1     -15.531   2.866 -16.306  0.00  0.00    +0.152 HD
BRANCH  19  21
ATOM     21  C   UNL     1     -16.070   3.789 -14.607  0.00  0.00    +0.031 A 
ATOM     22  C   UNL     1     -15.392   4.520 -13.617  0.00  0.00    +0.023 A 
ATOM     23  C   UNL     1     -15.756   4.433 -12.271  0.00  0.00    +0.002 A 
ATOM     24  C   UNL     1     -16.802   3.600 -11.890  0.00  0.00    +0.000 A 
ATOM     25  C   UNL     1     -17.491   2.874 -12.859  0.00  0.00    +0.002 A 
ATOM     26  C   UNL     1     -17.131   2.973 -14.210  0.00  0.00    +0.023 A 
ENDBRANCH  19  21
ENDBRANCH  13  19
BRANCH   1  27
ATOM     27  O   UNL     1     -14.340   1.487 -15.914  0.00  0.00    -0.505 OA
ATOM     28  H   UNL     1     -15.042   2.010 -15.579  0.00  0.00    +0.292 HD
ENDBRANCH   1  27
BRANCH   8  29
ATOM     29  O   UNL     1      -9.627   3.834 -17.701  0.00  0.00    -0.506 OA
ATOM     30  H   UNL     1      -9.487   4.755 -17.595  0.00  0.00    +0.292 HD
ENDBRANCH   8  29
TORSDOF 6
ENDMDL
MODEL 2
REMARK VINA RESULT:      -7.8      3.832      6.290
REMARK  Name = min_compound994.pdb
REMARK  6 active torsions:
REMARK  status: ('A' for Active; 'I' for Inactive)
REMARK    1  A    between atoms: _1  and  _12
REMARK    2  A    between atoms: _2  and  _21
REMARK    3  A    between atoms: _8  and  _23
REMARK    4  A    between atoms: _9  and  _23
REMARK    5  A    between atoms: _10  and  _24
REMARK    6  A    between atoms: _24  and  _26
REMARK                            x       y       z     vdW  Elec       q    Type
REMARK                         _______ _______ _______ _____ _____    ______ ____
ROOT
ATOM      1  C   UNL     1     -13.479   2.808 -20.557  0.00  0.00    +0.134 A 
ATOM      2  C   UNL     1     -13.896   3.439 -21.780  0.00  0.00    +0.028 A 
ATOM      3  C   UNL     1     -14.444   2.664 -22.842  0.00  0.00    +0.012 A 
ATOM      4  C   UNL     1     -14.902   3.208 -24.043  0.00  0.00    +0.001 A 
ATOM      5  C   UNL     1     -14.822   4.571 -24.233  0.00  0.00    +0.001 A 
ATOM      6  C   UNL     1     -14.277   5.365 -23.225  0.00  0.00    +0.012 A 
ATOM      7  C   UNL     1     -13.796   4.849 -21.988  0.00  0.00    +0.028 A 
ATOM      8  C   UNL     1     -13.250   5.733 -21.001  0.00  0.00    +0.132 A 
ATOM      9  C   UNL     1     -12.841   5.104 -19.773  0.00  0.00    +0.029 A 
ATOM     10  C   UNL     1     -12.328   5.923 -18.737  0.00  0.00    +0.013 A 
ATOM     11  C   UNL     1     -11.996   5.455 -17.471  0.00  0.00    +0.017 A 
ATOM     12  C   UNL     1     -12.137   4.107 -17.187  0.00  0.00    +0.081 A 
ATOM     13  C   UNL     1     -12.521   3.211 -18.208  0.00  0.00    +0.057 A 
ATOM     14  C   UNL     1     -12.944   3.688 -19.525  0.00  0.00    +0.050 A 
ENDROOT
BRANCH  12  15
ATOM     15  C   UNL     1     -11.993   3.728 -15.753  0.00  0.00    +0.339 C 
ATOM     16  O   UNL     1     -12.919   3.325 -15.061  0.00  0.00    -0.245 OA
BRANCH  15  17
ATOM     17  O   UNL     1     -10.714   3.740 -15.310  0.00  0.00    -0.477 OA
ATOM     18  H   UNL     1     -10.687   4.120 -14.397  0.00  0.00    +0.295 HD
ENDBRANCH  15  17
ENDBRANCH  12  15
BRANCH  13  19
ATOM     19  N   UNL     1     -12.600   1.789 -17.936  0.00  0.00    -0.313 N 
ATOM     20  H   UNL     1     -12.998   1.402 -18.832  0.00  0.00    +0.152 HD
BRANCH  19  21
ATOM     21  C   UNL     1     -11.589   0.889 -17.497  0.00  0.00    +0.031 A 
ATOM     22  C   UNL     1     -11.994  -0.176 -16.675  0.00  0.00    +0.023 A 
ATOM     23  C   UNL     1     -11.065  -1.045 -16.099  0.00  0.00    +0.002 A 
ATOM     24  C   UNL     1      -9.706  -0.854 -16.328  0.00  0.00    +0.000 A 
ATOM     25  C   UNL     1      -9.286   0.191 -17.148  0.00  0.00    +0.002 A 
ATOM     26  C   UNL     1     -10.223   1.054 -17.733  0.00  0.00    +0.023 A 
ENDBRANCH  19  21
ENDBRANCH  13  19
BRANCH   1  27
ATOM     27  O   UNL     1     -13.600   1.529 -20.381  0.00  0.00    -0.505 OA
ATOM     28  H   UNL     1     -12.850   0.971 -20.457  0.00  0.00    +0.292 HD
ENDBRANCH   1  27
BRANCH   8  29
ATOM     29  O   UNL     1     -13.150   7.010 -21.198  0.00  0.00    -0.506 OA
ATOM     30  H   UNL     1     -13.892   7.497 -21.498  0.00  0.00    +0.292 HD
ENDBRANCH   8  29
TORSDOF 6
ENDMDL
MODEL 3
REMARK VINA RESULT:      -7.8      3.582      4.356
REMARK  Name = min_compound994.pdb
REMARK  6 active torsions:
REMARK  status: ('A' for Active; 'I' for Inactive)
REMARK    1  A    between atoms: _1  and  _12
REMARK    2  A    between atoms: _2  and  _21
REMARK    3  A    between atoms: _8  and  _23
REMARK    4  A    between atoms: _9  and  _23
REMARK    5  A    between atoms: _10  and  _24
REMARK    6  A    between atoms: _24  and  _26
REMARK                            x       y       z     vdW  Elec       q    Type
REMARK                         _______ _______ _______ _____ _____    ______ ____
ROOT
ATOM      1  C   UNL     1     -12.338   2.087 -18.306  0.00  0.00    +0.134 A 
ATOM      2  C   UNL     1     -11.587   1.337 -17.334  0.00  0.00    +0.028 A 
ATOM      3  C   UNL     1     -11.581  -0.087 -17.370  0.00  0.00    +0.012 A 
ATOM      4  C   UNL     1     -10.851  -0.881 -16.484  0.00  0.00    +0.001 A 
ATOM      5  C   UNL     1     -10.092  -0.271 -15.509  0.00  0.00    +0.001 A 
ATOM      6  C   UNL     1     -10.084   1.121 -15.428  0.00  0.00    +0.012 A 
ATOM      7  C   UNL     1     -10.816   1.967 -16.309  0.00  0.00    +0.028 A 
ATOM      8  C   UNL     1     -10.755   3.391 -16.161  0.00  0.00    +0.132 A 
ATOM      9  C   UNL     1     -11.497   4.142 -17.138  0.00  0.00    +0.029 A 
ATOM     10  C   UNL     1     -11.449   5.557 -17.075  0.00  0.00    +0.013 A 
ATOM     11  C   UNL     1     -12.034   6.395 -18.017  0.00  0.00    +0.017 A 
ATOM     12  C   UNL     1     -12.738   5.841 -19.075  0.00  0.00    +0.081 A 
ATOM     13  C   UNL     1     -12.935   4.444 -19.131  0.00  0.00    +0.057 A 
ATOM     14  C   UNL     1     -12.271   3.539 -18.194  0.00  0.00    +0.050 A 
ENDROOT
BRANCH  12  15
ATOM     15  C   UNL     1     -13.125   6.784 -20.161  0.00  0.00    +0.339 C 
ATOM     16  O   UNL     1     -12.371   7.130 -21.061  0.00  0.00    -0.245 OA
BRANCH  15  17
ATOM     17  O   UNL     1     -14.434   7.130 -20.144  0.00  0.00    -0.477 OA
ATOM     18  H   UNL     1     -14.515   8.096 -19.945  0.00  0.00    +0.295 HD
ENDBRANCH  15  17
ENDBRANCH  12  15
BRANCH  13  19
ATOM     19  N   UNL     1     -13.733   3.866 -20.195  0.00  0.00    -0.313 N 
ATOM     20  H   UNL     1     -13.388   2.870 -20.229  0.00  0.00    +0.152 HD
BRANCH  19  21
ATOM     21  C   UNL     1     -15.146   3.832 -20.358  0.00  0.00    +0.031 A 
ATOM     22  C   UNL     1     -15.635   3.675 -21.666  0.00  0.00    +0.023 A 
ATOM     23  C   UNL     1     -17.002   3.745 -21.944  0.00  0.00    +0.002 A 
ATOM     24  C   UNL     1     -17.906   3.986 -20.915  0.00  0.00    +0.000 A 
ATOM     25  C   UNL     1     -17.439   4.135 -19.610  0.00  0.00    +0.002 A 
ATOM     26  C   UNL     1     -16.068   4.053 -19.333  0.00  0.00    +0.023 A 
ENDBRANCH  19  21
ENDBRANCH  13  19
BRANCH   1  27
ATOM     27  O   UNL     1     -13.012   1.496 -19.243  0.00  0.00    -0.505 OA
ATOM     28  H   UNL     1     -13.058   0.560 -19.268  0.00  0.00    +0.292 HD
ENDBRANCH   1  27
BRANCH   8  29
ATOM     29  O   UNL     1     -10.063   3.957 -15.223  0.00  0.00    -0.506 OA
ATOM     30  H   UNL     1     -10.095   4.888 -15.114  0.00  0.00    +0.292 HD
ENDBRANCH   8  29
TORSDOF 6
ENDMDL
MODEL 4
REMARK VINA RESULT:      -7.6      1.814      2.141
REMARK  Name = min_compound994.pdb
REMARK  6 active torsions:
REMARK  status: ('A' for Active; 'I' for Inactive)
REMARK    1  A    between atoms: _1  and  _12
REMARK    2  A    between atoms: _2  and  _21
REMARK    3  A    between atoms: _8  and  _23
REMARK    4  A    between atoms: _9  and  _23
REMARK    5  A    between atoms: _10  and  _24
REMARK    6  A    between atoms: _24  and  _26
REMARK                            x       y       z     vdW  Elec       q    Type
REMARK                         _______ _______ _______ _____ _____    ______ ____
ROOT
ATOM      1  C   UNL     1     -12.902   2.951 -15.995  0.00  0.00    +0.134 A 
ATOM      2  C   UNL     1     -11.920   1.994 -16.430  0.00  0.00    +0.028 A 
ATOM      3  C   UNL     1     -10.925   1.519 -15.528  0.00  0.00    +0.012 A 
ATOM      4  C   UNL     1      -9.962   0.568 -15.867  0.00  0.00    +0.001 A 
ATOM      5  C   UNL     1      -9.954   0.050 -17.145  0.00  0.00    +0.001 A 
ATOM      6  C   UNL     1     -10.901   0.500 -18.064  0.00  0.00    +0.012 A 
ATOM      7  C   UNL     1     -11.897   1.471 -17.760  0.00  0.00    +0.028 A 
ATOM      8  C   UNL     1     -12.835   1.881 -18.762  0.00  0.00    +0.132 A 
ATOM      9  C   UNL     1     -13.824   2.831 -18.325  0.00  0.00    +0.029 A 
ATOM     10  C   UNL     1     -14.809   3.250 -19.253  0.00  0.00    +0.013 A 
ATOM     11  C   UNL     1     -15.876   4.080 -18.929  0.00  0.00    +0.017 A 
ATOM     12  C   UNL     1     -15.992   4.564 -17.636  0.00  0.00    +0.081 A 
ATOM     13  C   UNL     1     -14.979   4.292 -16.692  0.00  0.00    +0.057 A 
ATOM     14  C   UNL     1     -13.886   3.365 -16.988  0.00  0.00    +0.050 A 
ENDROOT
BRANCH  12  15
ATOM     15  C   UNL     1     -17.278   5.242 -17.310  0.00  0.00    +0.339 C 
ATOM     16  O   UNL     1     -18.361   4.671 -17.295  0.00  0.00    -0.245 OA
BRANCH  15  17
ATOM     17  O   UNL     1     -17.132   6.524 -16.900  0.00  0.00    -0.477 OA
ATOM     18  H   UNL     1     -17.938   6.801 -16.398  0.00  0.00    +0.295 HD
ENDBRANCH  15  17
ENDBRANCH  12  15
BRANCH  13  19
ATOM     19  N   UNL     1     -15.057   4.856 -15.359  0.00  0.00    -0.313 N 
ATOM     20  H   UNL     1     -15.374   5.844 -15.543  0.00  0.00    +0.152 HD
BRANCH  19  21
ATOM     21  C   UNL     1     -15.761   4.391 -14.213  0.00  0.00    +0.031 A 
ATOM     22  C   UNL     1     -15.484   5.027 -12.990  0.00  0.00    +0.023 A 
ATOM     23  C   UNL     1     -16.034   4.568 -11.791  0.00  0.00    +0.002 A 
ATOM     24  C   UNL     1     -16.866   3.454 -11.794  0.00  0.00    +0.000 A 
ATOM     25  C   UNL     1     -17.159   2.816 -12.998  0.00  0.00    +0.002 A 
ATOM     26  C   UNL     1     -16.614   3.286 -14.200  0.00  0.00    +0.023 A 
ENDBRANCH  19  21
ENDBRANCH  13  19
BRANCH   1  27
ATOM     27  O   UNL     1     -12.920   3.395 -14.776  0.00  0.00    -0.505 OA
ATOM     28  H   UNL     1     -13.417   2.945 -14.121  0.00  0.00    +0.292 HD
ENDBRANCH   1  27
BRANCH   8  29
ATOM     29  O   UNL     1     -12.804   1.413 -19.970  0.00  0.00    -0.506 OA
ATOM     30  H   UNL     1     -13.204   0.588 -20.163  0.00  0.00    +0.292 HD
ENDBRANCH   8  29
TORSDOF 6
ENDMDL
MODEL 5
REMARK VINA RESULT:      -7.5      1.915      6.168
REMARK  Name = min_compound994.pdb
REMARK  6 active torsions:
REMARK  status: ('A' for Active; 'I' for Inactive)
REMARK    1  A    between atoms: _1  and  _12
REMARK    2  A    between atoms: _2  and  _21
REMARK    3  A    between atoms: _8  and  _23
REMARK    4  A    between atoms: _9  and  _23
REMARK    5  A    between atoms: _10  and  _24
REMARK    6  A    between atoms: _24  and  _26
REMARK                            x       y       z     vdW  Elec       q    Type
REMARK                         _______ _______ _______ _____ _____    ______ ____
ROOT
ATOM      1  C   UNL     1     -15.429   4.307 -14.913  0.00  0.00    +0.134 A 
ATOM      2  C   UNL     1     -16.202   4.522 -13.719  0.00  0.00    +0.028 A 
ATOM      3  C   UNL     1     -16.612   3.420 -12.916  0.00  0.00    +0.012 A 
ATOM      4  C   UNL     1     -17.332   3.551 -11.728  0.00  0.00    +0.001 A 
ATOM      5  C   UNL     1     -17.682   4.812 -11.294  0.00  0.00    +0.001 A 
ATOM      6  C   UNL     1     -17.314   5.918 -12.060  0.00  0.00    +0.012 A 
ATOM      7  C   UNL     1     -16.582   5.827 -13.277  0.00  0.00    +0.028 A 
ATOM      8  C   UNL     1     -16.243   7.013 -14.007  0.00  0.00    +0.132 A 
ATOM      9  C   UNL     1     -15.462   6.800 -15.196  0.00  0.00    +0.029 A 
ATOM     10  C   UNL     1     -15.056   7.931 -15.945  0.00  0.00    +0.013 A 
ATOM     11  C   UNL     1     -14.216   7.869 -17.051  0.00  0.00    +0.017 A 
ATOM     12  C   UNL     1     -13.756   6.636 -17.486  0.00  0.00    +0.081 A 
ATOM     13  C   UNL     1     -14.221   5.456 -16.866  0.00  0.00    +0.057 A 
ATOM     14  C   UNL     1     -15.047   5.499 -15.659  0.00  0.00    +0.050 A 
ENDROOT
BRANCH  12  15
ATOM     15  C   UNL     1     -12.680   6.672 -18.515  0.00  0.00    +0.339 C 
ATOM     16  O   UNL     1     -12.693   5.996 -19.535  0.00  0.00    -0.245 OA
BRANCH  15  17
ATOM     17  O   UNL     1     -11.740   7.620 -18.290  0.00  0.00    -0.477 OA
ATOM     18  H   UNL     1     -12.180   8.450 -17.979  0.00  0.00    +0.295 HD
ENDBRANCH  15  17
ENDBRANCH  12  15
BRANCH  13  19
ATOM     19  N   UNL     1     -13.801   4.160 -17.364  0.00  0.00    -0.313 N 
ATOM     20  H   UNL     1     -13.910   4.266 -18.407  0.00  0.00    +0.152 HD
BRANCH  19  21
ATOM     21  C   UNL     1     -12.594   3.443 -17.133  0.00  0.00    +0.031 A 
ATOM     22  C   UNL     1     -12.385   2.280 -17.894  0.00  0.00    +0.023 A 
ATOM     23  C   UNL     1     -11.290   1.446 -17.660  0.00  0.00    +0.002 A 
ATOM     24  C   UNL     1     -10.387   1.756 -16.649  0.00  0.00    +0.000 A 
ATOM     25  C   UNL     1     -10.573   2.911 -15.891  0.00  0.00    +0.002 A 
ATOM     26  C   UNL     1     -11.667   3.751 -16.136  0.00  0.00    +0.023 A 
ENDBRANCH  19  21
ENDBRANCH  13  19
BRANCH   1  27
ATOM     27  O   UNL     1     -15.074   3.115 -15.283  0.00  0.00    -0.505 OA
ATOM     28  H   UNL     1     -14.165   2.891 -15.333  0.00  0.00    +0.292 HD
ENDBRANCH   1  27
BRANCH   8  29
ATOM     29  O   UNL     1     -16.600   8.193 -13.609  0.00  0.00    -0.506 OA
ATOM     30  H   UNL     1     -16.128   8.618 -12.920  0.00  0.00    +0.292 HD
ENDBRANCH   8  29
TORSDOF 6
ENDMDL
MODEL 6
REMARK VINA RESULT:      -7.2      6.800     10.673
REMARK  Name = min_compound994.pdb
REMARK  6 active torsions:
REMARK  status: ('A' for Active; 'I' for Inactive)
REMARK    1  A    between atoms: _1  and  _12
REMARK    2  A    between atoms: _2  and  _21
REMARK    3  A    between atoms: _8  and  _23
REMARK    4  A    between atoms: _9  and  _23
REMARK    5  A    between atoms: _10  and  _24
REMARK    6  A    between atoms: _24  and  _26
REMARK                            x       y       z     vdW  Elec       q    Type
REMARK                         _______ _______ _______ _____ _____    ______ ____
ROOT
ATOM      1  C   UNL     1     -16.291   2.580  -8.919  0.00  0.00    +0.134 A 
ATOM      2  C   UNL     1     -16.533   3.501  -9.998  0.00  0.00    +0.028 A 
ATOM      3  C   UNL     1     -15.444   4.122 -10.674  0.00  0.00    +0.012 A 
ATOM      4  C   UNL     1     -15.598   4.998 -11.750  0.00  0.00    +0.001 A 
ATOM      5  C   UNL     1     -16.868   5.295 -12.194  0.00  0.00    +0.001 A 
ATOM      6  C   UNL     1     -17.963   4.720 -11.549  0.00  0.00    +0.012 A 
ATOM      7  C   UNL     1     -17.849   3.825 -10.447  0.00  0.00    +0.028 A 
ATOM      8  C   UNL     1     -19.025   3.277  -9.839  0.00  0.00    +0.132 A 
ATOM      9  C   UNL     1     -18.784   2.349  -8.766  0.00  0.00    +0.029 A 
ATOM     10  C   UNL     1     -19.900   1.736  -8.144  0.00  0.00    +0.013 A 
ATOM     11  C   UNL     1     -19.801   0.749  -7.171  0.00  0.00    +0.017 A 
ATOM     12  C   UNL     1     -18.548   0.341  -6.743  0.00  0.00    +0.081 A 
ATOM     13  C   UNL     1     -17.394   0.996  -7.225  0.00  0.00    +0.057 A 
ATOM     14  C   UNL     1     -17.469   1.986  -8.300  0.00  0.00    +0.050 A 
ENDROOT
BRANCH  12  15
ATOM     15  C   UNL     1     -18.520  -0.876  -5.884  0.00  0.00    +0.339 C 
ATOM     16  O   UNL     1     -19.418  -1.183  -5.111  0.00  0.00    -0.245 OA
BRANCH  15  17
ATOM     17  O   UNL     1     -17.468  -1.693  -6.128  0.00  0.00    -0.477 OA
ATOM     18  H   UNL     1     -16.861  -1.259  -6.779  0.00  0.00    +0.295 HD
ENDBRANCH  15  17
ENDBRANCH  12  15
BRANCH  13  19
ATOM     19  N   UNL     1     -16.085   0.624  -6.726  0.00  0.00    -0.313 N 
ATOM     20  H   UNL     1     -15.462   0.792  -7.560  0.00  0.00    +0.152 HD
BRANCH  19  21
ATOM     21  C   UNL     1     -15.385   1.081  -5.574  0.00  0.00    +0.031 A 
ATOM     22  C   UNL     1     -15.877   2.237  -4.945  0.00  0.00    +0.023 A 
ATOM     23  C   UNL     1     -15.196   2.830  -3.879  0.00  0.00    +0.002 A 
ATOM     24  C   UNL     1     -13.999   2.280  -3.432  0.00  0.00    +0.000 A 
ATOM     25  C   UNL     1     -13.502   1.129  -4.038  0.00  0.00    +0.002 A 
ATOM     26  C   UNL     1     -14.194   0.530  -5.099  0.00  0.00    +0.023 A 
ENDBRANCH  19  21
ENDBRANCH  13  19
BRANCH   1  27
ATOM     27  O   UNL     1     -15.086   2.281  -8.543  0.00  0.00    -0.505 OA
ATOM     28  H   UNL     1     -14.581   2.900  -8.051  0.00  0.00    +0.292 HD
ENDBRANCH   1  27
BRANCH   8  29
ATOM     29  O   UNL     1     -20.218   3.583 -10.242  0.00  0.00    -0.506 OA
ATOM     30  H   UNL     1     -20.405   3.630 -11.159  0.00  0.00    +0.292 HD
ENDBRANCH   8  29
TORSDOF 6
ENDMDL
MODEL 7
REMARK VINA RESULT:      -7.1      6.320     10.040
REMARK  Name = min_compound994.pdb
REMARK  6 active torsions:
REMARK  status: ('A' for Active; 'I' for Inactive)
REMARK    1  A    between atoms: _1  and  _12
REMARK    2  A    between atoms: _2  and  _21
REMARK    3  A    between atoms: _8  and  _23
REMARK    4  A    between atoms: _9  and  _23
REMARK    5  A    between atoms: _10  and  _24
REMARK    6  A    between atoms: _24  and  _26
REMARK                            x       y       z     vdW  Elec       q    Type
REMARK                         _______ _______ _______ _____ _____    ______ ____
ROOT
ATOM      1  C   UNL     1     -16.150   1.888  -7.241  0.00  0.00    +0.134 A 
ATOM      2  C   UNL     1     -15.458   1.545  -6.026  0.00  0.00    +0.028 A 
ATOM      3  C   UNL     1     -14.463   0.526  -6.026  0.00  0.00    +0.012 A 
ATOM      4  C   UNL     1     -13.726   0.162  -4.898  0.00  0.00    +0.001 A 
ATOM      5  C   UNL     1     -13.965   0.812  -3.706  0.00  0.00    +0.001 A 
ATOM      6  C   UNL     1     -14.942   1.805  -3.659  0.00  0.00    +0.012 A 
ATOM      7  C   UNL     1     -15.717   2.203  -4.785  0.00  0.00    +0.028 A 
ATOM      8  C   UNL     1     -16.704   3.234  -4.654  0.00  0.00    +0.132 A 
ATOM      9  C   UNL     1     -17.390   3.584  -5.870  0.00  0.00    +0.029 A 
ATOM     10  C   UNL     1     -18.351   4.624  -5.823  0.00  0.00    +0.013 A 
ATOM     11  C   UNL     1     -19.006   5.125  -6.942  0.00  0.00    +0.017 A 
ATOM     12  C   UNL     1     -18.745   4.575  -8.186  0.00  0.00    +0.081 A 
ATOM     13  C   UNL     1     -17.895   3.452  -8.291  0.00  0.00    +0.057 A 
ATOM     14  C   UNL     1     -17.141   2.953  -7.141  0.00  0.00    +0.050 A 
ENDROOT
BRANCH  12  15
ATOM     15  C   UNL     1     -19.296   5.318  -9.353  0.00  0.00    +0.339 C 
ATOM     16  O   UNL     1     -18.910   6.428  -9.696  0.00  0.00    -0.245 OA
BRANCH  15  17
ATOM     17  O   UNL     1     -20.178   4.601 -10.090  0.00  0.00    -0.477 OA
ATOM     18  H   UNL     1     -21.034   4.531  -9.598  0.00  0.00    +0.295 HD
ENDBRANCH  15  17
ENDBRANCH  12  15
BRANCH  13  19
ATOM     19  N   UNL     1     -17.675   2.826  -9.580  0.00  0.00    -0.313 N 
ATOM     20  H   UNL     1     -18.656   2.653  -9.925  0.00  0.00    +0.152 HD
BRANCH  19  21
ATOM     21  C   UNL     1     -16.907   3.273 -10.691  0.00  0.00    +0.031 A 
ATOM     22  C   UNL     1     -15.814   4.113 -10.416  0.00  0.00    +0.023 A 
ATOM     23  C   UNL     1     -15.070   4.697 -11.443  0.00  0.00    +0.002 A 
ATOM     24  C   UNL     1     -15.416   4.460 -12.769  0.00  0.00    +0.000 A 
ATOM     25  C   UNL     1     -16.491   3.623 -13.060  0.00  0.00    +0.002 A 
ATOM     26  C   UNL     1     -17.228   3.030 -12.027  0.00  0.00    +0.023 A 
ENDBRANCH  19  21
ENDBRANCH  13  19
BRANCH   1  27
ATOM     27  O   UNL     1     -15.882   1.294  -8.362  0.00  0.00    -0.505 OA
ATOM     28  H   UNL     1     -16.348   0.517  -8.604  0.00  0.00    +0.292 HD
ENDBRANCH   1  27
BRANCH   8  29
ATOM     29  O   UNL     1     -16.944   3.820  -3.524  0.00  0.00    -0.506 OA
ATOM     30  H   UNL     1     -17.537   3.430  -2.911  0.00  0.00    +0.292 HD
ENDBRANCH   8  29
TORSDOF 6
ENDMDL
MODEL 8
REMARK VINA RESULT:      -7.0      5.552      9.415
REMARK  Name = min_compound994.pdb
REMARK  6 active torsions:
REMARK  status: ('A' for Active; 'I' for Inactive)
REMARK    1  A    between atoms: _1  and  _12
REMARK    2  A    between atoms: _2  and  _21
REMARK    3  A    between atoms: _8  and  _23
REMARK    4  A    between atoms: _9  and  _23
REMARK    5  A    between atoms: _10  and  _24
REMARK    6  A    between atoms: _24  and  _26
REMARK                            x       y       z     vdW  Elec       q    Type
REMARK                         _______ _______ _______ _____ _____    ______ ____
ROOT
ATOM      1  C   UNL     1     -16.066   2.046  -8.273  0.00  0.00    +0.134 A 
ATOM      2  C   UNL     1     -15.689   1.037  -7.318  0.00  0.00    +0.028 A 
ATOM      3  C   UNL     1     -14.316   0.779  -7.045  0.00  0.00    +0.012 A 
ATOM      4  C   UNL     1     -13.874  -0.158  -6.109  0.00  0.00    +0.001 A 
ATOM      5  C   UNL     1     -14.806  -0.889  -5.404  0.00  0.00    +0.001 A 
ATOM      6  C   UNL     1     -16.161  -0.679  -5.654  0.00  0.00    +0.012 A 
ATOM      7  C   UNL     1     -16.653   0.263  -6.601  0.00  0.00    +0.028 A 
ATOM      8  C   UNL     1     -18.063   0.420  -6.799  0.00  0.00    +0.132 A 
ATOM      9  C   UNL     1     -18.442   1.435  -7.746  0.00  0.00    +0.029 A 
ATOM     10  C   UNL     1     -19.822   1.671  -7.962  0.00  0.00    +0.013 A 
ATOM     11  C   UNL     1     -20.316   2.689  -8.769  0.00  0.00    +0.017 A 
ATOM     12  C   UNL     1     -19.430   3.518  -9.438  0.00  0.00    +0.081 A 
ATOM     13  C   UNL     1     -18.043   3.261  -9.371  0.00  0.00    +0.057 A 
ATOM     14  C   UNL     1     -17.496   2.244  -8.473  0.00  0.00    +0.050 A 
ENDROOT
BRANCH  12  15
ATOM     15  C   UNL     1     -20.027   4.721 -10.082  0.00  0.00    +0.339 C 
ATOM     16  O   UNL     1     -19.596   5.856  -9.932  0.00  0.00    -0.245 OA
BRANCH  15  17
ATOM     17  O   UNL     1     -21.017   4.435 -10.961  0.00  0.00    -0.477 OA
ATOM     18  H   UNL     1     -20.987   3.472 -11.187  0.00  0.00    +0.295 HD
ENDBRANCH  15  17
ENDBRANCH  12  15
BRANCH  13  19
ATOM     19  N   UNL     1     -17.116   4.080 -10.127  0.00  0.00    -0.313 N 
ATOM     20  H   UNL     1     -16.255   4.078  -9.519  0.00  0.00    +0.152 HD
BRANCH  19  21
ATOM     21  C   UNL     1     -16.683   3.955 -11.476  0.00  0.00    +0.031 A 
ATOM     22  C   UNL     1     -17.342   3.005 -12.275  0.00  0.00    +0.023 A 
ATOM     23  C   UNL     1     -16.916   2.726 -13.575  0.00  0.00    +0.002 A 
ATOM     24  C   UNL     1     -15.809   3.388 -14.097  0.00  0.00    +0.000 A 
ATOM     25  C   UNL     1     -15.149   4.340 -13.323  0.00  0.00    +0.002 A 
ATOM     26  C   UNL     1     -15.587   4.625 -12.023  0.00  0.00    +0.023 A 
ENDBRANCH  19  21
ENDBRANCH  13  19
BRANCH   1  27
ATOM     27  O   UNL     1     -15.175   2.753  -8.896  0.00  0.00    -0.505 OA
ATOM     28  H   UNL     1     -15.443   3.432  -9.484  0.00  0.00    +0.292 HD
ENDBRANCH   1  27
BRANCH   8  29
ATOM     29  O   UNL     1     -18.934  -0.292  -6.155  0.00  0.00    -0.506 OA
ATOM     30  H   UNL     1     -18.652  -1.022  -5.639  0.00  0.00    +0.292 HD
ENDBRANCH   8  29
TORSDOF 6
ENDMDL
MODEL 9
REMARK VINA RESULT:      -6.7      6.469     10.091
REMARK  Name = min_compound994.pdb
REMARK  6 active torsions:
REMARK  status: ('A' for Active; 'I' for Inactive)
REMARK    1  A    between atoms: _1  and  _12
REMARK    2  A    between atoms: _2  and  _21
REMARK    3  A    between atoms: _8  and  _23
REMARK    4  A    between atoms: _9  and  _23
REMARK    5  A    between atoms: _10  and  _24
REMARK    6  A    between atoms: _24  and  _26
REMARK                            x       y       z     vdW  Elec       q    Type
REMARK                         _______ _______ _______ _____ _____    ______ ____
ROOT
ATOM      1  C   UNL     1     -16.850   3.281  -9.445  0.00  0.00    +0.134 A 
ATOM      2  C   UNL     1     -16.785   4.075 -10.644  0.00  0.00    +0.028 A 
ATOM      3  C   UNL     1     -16.546   3.459 -11.905  0.00  0.00    +0.012 A 
ATOM      4  C   UNL     1     -16.504   4.157 -13.113  0.00  0.00    +0.001 A 
ATOM      5  C   UNL     1     -16.696   5.522 -13.104  0.00  0.00    +0.001 A 
ATOM      6  C   UNL     1     -16.916   6.167 -11.888  0.00  0.00    +0.012 A 
ATOM      7  C   UNL     1     -16.964   5.493 -10.634  0.00  0.00    +0.028 A 
ATOM      8  C   UNL     1     -17.196   6.229  -9.427  0.00  0.00    +0.132 A 
ATOM      9  C   UNL     1     -17.270   5.435  -8.229  0.00  0.00    +0.029 A 
ATOM     10  C   UNL     1     -17.537   6.093  -7.003  0.00  0.00    +0.013 A 
ATOM     11  C   UNL     1     -17.736   5.432  -5.796  0.00  0.00    +0.017 A 
ATOM     12  C   UNL     1     -17.644   4.051  -5.755  0.00  0.00    +0.081 A 
ATOM     13  C   UNL     1     -17.256   3.338  -6.910  0.00  0.00    +0.057 A 
ATOM     14  C   UNL     1     -17.112   4.003  -8.206  0.00  0.00    +0.050 A 
ENDROOT
BRANCH  12  15
ATOM     15  C   UNL     1     -18.104   3.408  -4.492  0.00  0.00    +0.339 C 
ATOM     16  O   UNL     1     -18.925   2.501  -4.451  0.00  0.00    -0.245 OA
BRANCH  15  17
ATOM     17  O   UNL     1     -17.434   3.824  -3.391  0.00  0.00    -0.477 OA
ATOM     18  H   UNL     1     -16.848   4.585  -3.633  0.00  0.00    +0.295 HD
ENDBRANCH  15  17
ENDBRANCH  12  15
BRANCH  13  19
ATOM     19  N   UNL     1     -17.087   1.900  -6.855  0.00  0.00    -0.313 N 
ATOM     20  H   UNL     1     -17.283   1.604  -7.847  0.00  0.00    +0.152 HD
BRANCH  19  21
ATOM     21  C   UNL     1     -15.983   1.130  -6.393  0.00  0.00    +0.031 A 
ATOM     22  C   UNL     1     -15.869  -0.183  -6.881  0.00  0.00    +0.023 A 
ATOM     23  C   UNL     1     -14.890  -1.055  -6.402  0.00  0.00    +0.002 A 
ATOM     24  C   UNL     1     -14.010  -0.630  -5.412  0.00  0.00    +0.000 A 
ATOM     25  C   UNL     1     -14.102   0.671  -4.922  0.00  0.00    +0.002 A 
ATOM     26  C   UNL     1     -15.079   1.547  -5.414  0.00  0.00    +0.023 A 
ENDBRANCH  19  21
ENDBRANCH  13  19
BRANCH   1  27
ATOM     27  O   UNL     1     -16.708   1.993  -9.480  0.00  0.00    -0.505 OA
ATOM     28  H   UNL     1     -17.130   1.492 -10.151  0.00  0.00    +0.292 HD
ENDBRANCH   1  27
BRANCH   8  29
ATOM     29  O   UNL     1     -17.346   7.516  -9.421  0.00  0.00    -0.506 OA
ATOM     30  H   UNL     1     -17.594   7.962 -10.207  0.00  0.00    +0.292 HD
ENDBRANCH   8  29
TORSDOF 6
ENDMDL
