MODEL 1
REMARK VINA RESULT:      -8.5      0.000      0.000
REMARK  Name = min_compound925.pdb
REMARK  6 active torsions:
REMARK  status: ('A' for Active; 'I' for Inactive)
REMARK    1  A    between atoms: _1  and  _13
REMARK    2  A    between atoms: _6  and  _7
REMARK    3  A    between atoms: _9  and  _14
REMARK    4  A    between atoms: _12  and  _21
REMARK    5  A    between atoms: _14  and  _15
REMARK    6  A    between atoms: _21  and  _22
REMARK                            x       y       z     vdW  Elec       q    Type
REMARK                         _______ _______ _______ _____ _____    ______ ____
ROOT
ATOM      1  C   UNL     1     -12.981   4.187 -17.231  0.00  0.00    +0.127 C 
ATOM      2  N   UNL     1     -14.215   4.582 -16.442  0.00  0.00    -0.321 N 
ATOM      3  C   UNL     1     -14.802   5.859 -16.716  0.00  0.00    +0.076 C 
ATOM      4  C   UNL     1     -14.172   6.931 -17.250  0.00  0.00    -0.020 C 
ATOM      5  C   UNL     1     -12.753   6.718 -17.548  0.00  0.00    +0.004 C 
ATOM      6  C   UNL     1     -12.194   5.478 -17.512  0.00  0.00    +0.000 C 
ENDROOT
BRANCH   1  11
ATOM      7  C   UNL     1     -10.525   0.485 -16.132  0.00  0.00    -0.050 A 
ATOM      8  C   UNL     1      -9.712  -0.760 -15.932  0.00  0.00    +0.044 C 
ATOM      9  C   UNL     1     -11.394   0.566 -17.235  0.00  0.00    +0.004 A 
ATOM     10  C   UNL     1     -12.171   1.732 -17.544  0.00  0.00    +0.006 A 
ATOM     11  C   UNL     1     -12.165   2.912 -16.759  0.00  0.00    -0.023 A 
ATOM     12  C   UNL     1     -11.317   2.832 -15.640  0.00  0.00    +0.006 A 
ATOM     13  C   UNL     1     -10.513   1.659 -15.345  0.00  0.00    +0.004 A 
ENDBRANCH   1  11
BRANCH   2  14
ATOM     14  C   UNL     1     -15.017   3.438 -15.952  0.00  0.00    +0.140 C 
BRANCH  14  15
ATOM     15  C   UNL     1     -15.548   3.543 -14.535  0.00  0.00    -0.030 A 
ATOM     16  C   UNL     1     -16.666   2.787 -14.144  0.00  0.00    +0.005 A 
ATOM     17  C   UNL     1     -17.157   2.859 -12.839  0.00  0.00    +0.000 A 
ATOM     18  C   UNL     1     -16.537   3.690 -11.909  0.00  0.00    +0.000 A 
ATOM     19  C   UNL     1     -15.421   4.440 -12.280  0.00  0.00    +0.000 A 
ATOM     20  C   UNL     1     -14.922   4.360 -13.581  0.00  0.00    +0.005 A 
ENDBRANCH  14  15
ENDBRANCH   2  14
BRANCH   4  21
ATOM     21  C   UNL     1     -14.878   8.236 -17.473  0.00  0.00    +0.114 C 
BRANCH  21  22
ATOM     22  N   UNL     1     -15.584   9.540 -17.696  0.00  0.00    -0.326 NA
ATOM     23  H   UNL     1     -15.817   9.959 -16.795  0.00  0.00    +0.119 HD
ATOM     24  H   UNL     1     -14.975  10.172 -18.217  0.00  0.00    +0.119 HD
ENDBRANCH  21  22
ENDBRANCH   4  21
TORSDOF 5
ENDMDL
MODEL 2
REMARK VINA RESULT:      -7.8      0.468      1.074
REMARK  Name = min_compound925.pdb
REMARK  6 active torsions:
REMARK  status: ('A' for Active; 'I' for Inactive)
REMARK    1  A    between atoms: _1  and  _13
REMARK    2  A    between atoms: _6  and  _7
REMARK    3  A    between atoms: _9  and  _14
REMARK    4  A    between atoms: _12  and  _21
REMARK    5  A    between atoms: _14  and  _15
REMARK    6  A    between atoms: _21  and  _22
REMARK                            x       y       z     vdW  Elec       q    Type
REMARK                         _______ _______ _______ _____ _____    ______ ____
ROOT
ATOM      1  C   UNL     1     -13.395   4.251 -17.342  0.00  0.00    +0.127 C 
ATOM      2  N   UNL     1     -14.455   4.644 -16.330  0.00  0.00    -0.321 N 
ATOM      3  C   UNL     1     -15.022   5.955 -16.431  0.00  0.00    +0.076 C 
ATOM      4  C   UNL     1     -14.447   7.033 -17.013  0.00  0.00    -0.020 C 
ATOM      5  C   UNL     1     -13.113   6.787 -17.567  0.00  0.00    +0.004 C 
ATOM      6  C   UNL     1     -12.612   5.528 -17.691  0.00  0.00    +0.000 C 
ENDROOT
BRANCH   1  11
ATOM      7  C   UNL     1     -11.006   0.483 -16.328  0.00  0.00    -0.050 A 
ATOM      8  C   UNL     1     -10.184  -0.680 -15.854  0.00  0.00    +0.044 C 
ATOM      9  C   UNL     1     -10.666   1.780 -15.903  0.00  0.00    +0.004 A 
ATOM     10  C   UNL     1     -11.420   2.949 -16.255  0.00  0.00    +0.006 A 
ATOM     11  C   UNL     1     -12.568   2.923 -17.086  0.00  0.00    -0.023 A 
ATOM     12  C   UNL     1     -12.901   1.633 -17.536  0.00  0.00    +0.006 A 
ATOM     13  C   UNL     1     -12.149   0.450 -17.157  0.00  0.00    +0.004 A 
ENDBRANCH   1  11
BRANCH   2  14
ATOM     14  C   UNL     1     -15.210   3.503 -15.764  0.00  0.00    +0.140 C 
BRANCH  14  15
ATOM     15  C   UNL     1     -15.676   3.646 -14.327  0.00  0.00    -0.030 A 
ATOM     16  C   UNL     1     -16.780   2.908 -13.868  0.00  0.00    +0.005 A 
ATOM     17  C   UNL     1     -17.211   3.016 -12.545  0.00  0.00    +0.000 A 
ATOM     18  C   UNL     1     -16.545   3.866 -11.664  0.00  0.00    +0.000 A 
ATOM     19  C   UNL     1     -15.444   4.598 -12.104  0.00  0.00    +0.000 A 
ATOM     20  C   UNL     1     -15.004   4.483 -13.424  0.00  0.00    +0.005 A 
ENDBRANCH  14  15
ENDBRANCH   2  14
BRANCH   4  21
ATOM     21  C   UNL     1     -15.121   8.372 -17.042  0.00  0.00    +0.114 C 
BRANCH  21  22
ATOM     22  N   UNL     1     -15.796   9.711 -17.072  0.00  0.00    -0.326 NA
ATOM     23  H   UNL     1     -15.555  10.232 -16.228  0.00  0.00    +0.119 HD
ATOM     24  H   UNL     1     -15.485  10.231 -17.893  0.00  0.00    +0.119 HD
ENDBRANCH  21  22
ENDBRANCH   4  21
TORSDOF 5
ENDMDL
MODEL 3
REMARK VINA RESULT:      -7.7      1.793      5.638
REMARK  Name = min_compound925.pdb
REMARK  6 active torsions:
REMARK  status: ('A' for Active; 'I' for Inactive)
REMARK    1  A    between atoms: _1  and  _13
REMARK    2  A    between atoms: _6  and  _7
REMARK    3  A    between atoms: _9  and  _14
REMARK    4  A    between atoms: _12  and  _21
REMARK    5  A    between atoms: _14  and  _15
REMARK    6  A    between atoms: _21  and  _22
REMARK                            x       y       z     vdW  Elec       q    Type
REMARK                         _______ _______ _______ _____ _____    ______ ____
ROOT
ATOM      1  C   UNL     1     -14.409   4.823 -16.088  0.00  0.00    +0.127 C 
ATOM      2  N   UNL     1     -13.219   4.076 -16.660  0.00  0.00    -0.321 N 
ATOM      3  C   UNL     1     -12.727   4.484 -17.941  0.00  0.00    +0.076 C 
ATOM      4  C   UNL     1     -13.430   5.135 -18.898  0.00  0.00    -0.020 C 
ATOM      5  C   UNL     1     -14.824   5.416 -18.545  0.00  0.00    +0.004 C 
ATOM      6  C   UNL     1     -15.288   5.247 -17.277  0.00  0.00    +0.000 C 
ENDROOT
BRANCH   1  11
ATOM      7  C   UNL     1     -16.587   3.341 -12.346  0.00  0.00    -0.050 A 
ATOM      8  C   UNL     1     -17.300   3.010 -11.069  0.00  0.00    +0.044 C 
ATOM      9  C   UNL     1     -15.691   4.425 -12.370  0.00  0.00    +0.004 A 
ATOM     10  C   UNL     1     -15.003   4.855 -13.554  0.00  0.00    +0.006 A 
ATOM     11  C   UNL     1     -15.132   4.219 -14.813  0.00  0.00    -0.023 A 
ATOM     12  C   UNL     1     -16.008   3.118 -14.794  0.00  0.00    +0.006 A 
ATOM     13  C   UNL     1     -16.721   2.702 -13.600  0.00  0.00    +0.004 A 
ENDBRANCH   1  11
BRANCH   2  14
ATOM     14  C   UNL     1     -12.339   3.459 -15.641  0.00  0.00    +0.140 C 
BRANCH  14  15
ATOM     15  C   UNL     1     -11.834   2.060 -15.941  0.00  0.00    -0.030 A 
ATOM     16  C   UNL     1     -10.500   1.719 -15.665  0.00  0.00    +0.005 A 
ATOM     17  C   UNL     1     -10.025   0.432 -15.919  0.00  0.00    +0.000 A 
ATOM     18  C   UNL     1     -10.877  -0.531 -16.456  0.00  0.00    +0.000 A 
ATOM     19  C   UNL     1     -12.206  -0.209 -16.728  0.00  0.00    +0.000 A 
ATOM     20  C   UNL     1     -12.687   1.075 -16.463  0.00  0.00    +0.005 A 
ENDBRANCH  14  15
ENDBRANCH   2  14
BRANCH   4  21
ATOM     21  C   UNL     1     -12.822   5.495 -20.221  0.00  0.00    +0.114 C 
BRANCH  21  22
ATOM     22  N   UNL     1     -12.213   5.856 -21.544  0.00  0.00    -0.326 NA
ATOM     23  H   UNL     1     -12.020   5.005 -22.072  0.00  0.00    +0.119 HD
ATOM     24  H   UNL     1     -12.863   6.442 -22.068  0.00  0.00    +0.119 HD
ENDBRANCH  21  22
ENDBRANCH   4  21
TORSDOF 5
ENDMDL
MODEL 4
REMARK VINA RESULT:      -7.6      2.657      6.435
REMARK  Name = min_compound925.pdb
REMARK  6 active torsions:
REMARK  status: ('A' for Active; 'I' for Inactive)
REMARK    1  A    between atoms: _1  and  _13
REMARK    2  A    between atoms: _6  and  _7
REMARK    3  A    between atoms: _9  and  _14
REMARK    4  A    between atoms: _12  and  _21
REMARK    5  A    between atoms: _14  and  _15
REMARK    6  A    between atoms: _21  and  _22
REMARK                            x       y       z     vdW  Elec       q    Type
REMARK                         _______ _______ _______ _____ _____    ______ ____
ROOT
ATOM      1  C   UNL     1     -14.424   3.348 -17.325  0.00  0.00    +0.127 C 
ATOM      2  N   UNL     1     -13.641   2.084 -17.624  0.00  0.00    -0.321 N 
ATOM      3  C   UNL     1     -13.213   1.867 -18.973  0.00  0.00    +0.076 C 
ATOM      4  C   UNL     1     -13.776   2.395 -20.085  0.00  0.00    -0.020 C 
ATOM      5  C   UNL     1     -14.935   3.254 -19.833  0.00  0.00    +0.004 C 
ATOM      6  C   UNL     1     -15.258   3.668 -18.577  0.00  0.00    +0.000 C 
ENDROOT
BRANCH   1  11
ATOM      7  C   UNL     1     -16.454   3.433 -13.224  0.00  0.00    -0.050 A 
ATOM      8  C   UNL     1     -17.149   3.302 -11.902  0.00  0.00    +0.044 C 
ATOM      9  C   UNL     1     -16.841   2.598 -14.288  0.00  0.00    +0.004 A 
ATOM     10  C   UNL     1     -16.202   2.608 -15.573  0.00  0.00    +0.006 A 
ATOM     11  C   UNL     1     -15.134   3.475 -15.913  0.00  0.00    -0.023 A 
ATOM     12  C   UNL     1     -14.756   4.331 -14.863  0.00  0.00    +0.006 A 
ATOM     13  C   UNL     1     -15.389   4.301 -13.557  0.00  0.00    +0.004 A 
ENDBRANCH   1  11
BRANCH   2  14
ATOM     14  C   UNL     1     -12.893   1.542 -16.467  0.00  0.00    +0.140 C 
BRANCH  14  15
ATOM     15  C   UNL     1     -11.579   0.848 -16.776  0.00  0.00    -0.030 A 
ATOM     16  C   UNL     1     -10.505   1.579 -17.308  0.00  0.00    +0.005 A 
ATOM     17  C   UNL     1      -9.285   0.959 -17.582  0.00  0.00    +0.000 A 
ATOM     18  C   UNL     1      -9.124  -0.402 -17.329  0.00  0.00    +0.000 A 
ATOM     19  C   UNL     1     -10.179  -1.138 -16.793  0.00  0.00    +0.000 A 
ATOM     20  C   UNL     1     -11.397  -0.517 -16.507  0.00  0.00    +0.005 A 
ENDBRANCH  14  15
ENDBRANCH   2  14
BRANCH   4  21
ATOM     21  C   UNL     1     -13.262   2.081 -21.459  0.00  0.00    +0.114 C 
BRANCH  21  22
ATOM     22  N   UNL     1     -12.747   1.767 -22.833  0.00  0.00    -0.326 NA
ATOM     23  H   UNL     1     -13.449   1.231 -23.344  0.00  0.00    +0.119 HD
ATOM     24  H   UNL     1     -12.554   2.636 -23.330  0.00  0.00    +0.119 HD
ENDBRANCH  21  22
ENDBRANCH   4  21
TORSDOF 5
ENDMDL
MODEL 5
REMARK VINA RESULT:      -7.5      2.389      4.773
REMARK  Name = min_compound925.pdb
REMARK  6 active torsions:
REMARK  status: ('A' for Active; 'I' for Inactive)
REMARK    1  A    between atoms: _1  and  _13
REMARK    2  A    between atoms: _6  and  _7
REMARK    3  A    between atoms: _9  and  _14
REMARK    4  A    between atoms: _12  and  _21
REMARK    5  A    between atoms: _14  and  _15
REMARK    6  A    between atoms: _21  and  _22
REMARK                            x       y       z     vdW  Elec       q    Type
REMARK                         _______ _______ _______ _____ _____    ______ ____
ROOT
ATOM      1  C   UNL     1     -14.054   2.819 -16.368  0.00  0.00    +0.127 C 
ATOM      2  N   UNL     1     -14.552   3.115 -17.770  0.00  0.00    -0.321 N 
ATOM      3  C   UNL     1     -15.829   3.750 -17.905  0.00  0.00    +0.076 C 
ATOM      4  C   UNL     1     -16.835   3.722 -17.000  0.00  0.00    -0.020 C 
ATOM      5  C   UNL     1     -16.546   2.949 -15.790  0.00  0.00    +0.004 C 
ATOM      6  C   UNL     1     -15.291   2.506 -15.508  0.00  0.00    +0.000 C 
ENDROOT
BRANCH   1  11
ATOM      7  C   UNL     1     -10.430   0.033 -16.162  0.00  0.00    -0.050 A 
ATOM      8  C   UNL     1      -9.305  -0.958 -16.224  0.00  0.00    +0.044 C 
ATOM      9  C   UNL     1     -11.709  -0.355 -16.600  0.00  0.00    +0.004 A 
ATOM     10  C   UNL     1     -12.836   0.533 -16.633  0.00  0.00    +0.006 A 
ATOM     11  C   UNL     1     -12.785   1.883 -16.204  0.00  0.00    -0.023 A 
ATOM     12  C   UNL     1     -11.515   2.273 -15.741  0.00  0.00    +0.006 A 
ATOM     13  C   UNL     1     -10.372   1.378 -15.734  0.00  0.00    +0.004 A 
ENDBRANCH   1  11
BRANCH   2  14
ATOM     14  C   UNL     1     -13.478   3.291 -18.774  0.00  0.00    +0.140 C 
BRANCH  14  15
ATOM     15  C   UNL     1     -12.870   4.678 -18.877  0.00  0.00    -0.030 A 
ATOM     16  C   UNL     1     -12.833   5.339 -20.116  0.00  0.00    +0.005 A 
ATOM     17  C   UNL     1     -12.292   6.622 -20.225  0.00  0.00    +0.000 A 
ATOM     18  C   UNL     1     -11.780   7.258 -19.096  0.00  0.00    +0.000 A 
ATOM     19  C   UNL     1     -11.818   6.618 -17.859  0.00  0.00    +0.000 A 
ATOM     20  C   UNL     1     -12.369   5.339 -17.746  0.00  0.00    +0.005 A 
ENDBRANCH  14  15
ENDBRANCH   2  14
BRANCH   4  21
ATOM     21  C   UNL     1     -18.147   4.404 -17.254  0.00  0.00    +0.114 C 
BRANCH  21  22
ATOM     22  N   UNL     1     -19.460   5.085 -17.508  0.00  0.00    -0.326 NA
ATOM     23  H   UNL     1     -19.765   4.890 -18.462  0.00  0.00    +0.119 HD
ATOM     24  H   UNL     1     -20.157   4.736 -16.850  0.00  0.00    +0.119 HD
ENDBRANCH  21  22
ENDBRANCH   4  21
TORSDOF 5
ENDMDL
MODEL 6
REMARK VINA RESULT:      -7.2      1.908      4.923
REMARK  Name = min_compound925.pdb
REMARK  6 active torsions:
REMARK  status: ('A' for Active; 'I' for Inactive)
REMARK    1  A    between atoms: _1  and  _13
REMARK    2  A    between atoms: _6  and  _7
REMARK    3  A    between atoms: _9  and  _14
REMARK    4  A    between atoms: _12  and  _21
REMARK    5  A    between atoms: _14  and  _15
REMARK    6  A    between atoms: _21  and  _22
REMARK                            x       y       z     vdW  Elec       q    Type
REMARK                         _______ _______ _______ _____ _____    ______ ____
ROOT
ATOM      1  C   UNL     1     -13.388   3.765 -15.723  0.00  0.00    +0.127 C 
ATOM      2  N   UNL     1     -13.486   4.932 -16.688  0.00  0.00    -0.321 N 
ATOM      3  C   UNL     1     -14.532   5.888 -16.476  0.00  0.00    +0.076 C 
ATOM      4  C   UNL     1     -15.694   5.668 -15.818  0.00  0.00    -0.020 C 
ATOM      5  C   UNL     1     -15.855   4.306 -15.302  0.00  0.00    +0.004 C 
ATOM      6  C   UNL     1     -14.821   3.422 -15.284  0.00  0.00    +0.000 C 
ENDROOT
BRANCH   1  11
ATOM      7  C   UNL     1     -10.571   0.247 -16.517  0.00  0.00    -0.050 A 
ATOM      8  C   UNL     1      -9.601  -0.892 -16.622  0.00  0.00    +0.044 C 
ATOM      9  C   UNL     1     -10.302   1.297 -15.620  0.00  0.00    +0.004 A 
ATOM     10  C   UNL     1     -11.193   2.401 -15.407  0.00  0.00    +0.006 A 
ATOM     11  C   UNL     1     -12.421   2.564 -16.094  0.00  0.00    -0.023 A 
ATOM     12  C   UNL     1     -12.688   1.532 -17.011  0.00  0.00    +0.006 A 
ATOM     13  C   UNL     1     -11.796   0.404 -17.206  0.00  0.00    +0.004 A 
ENDBRANCH   1  11
BRANCH   2  14
ATOM     14  C   UNL     1     -12.205   5.300 -17.332  0.00  0.00    +0.140 C 
BRANCH  14  15
ATOM     15  C   UNL     1     -12.266   5.646 -18.809  0.00  0.00    -0.030 A 
ATOM     16  C   UNL     1     -12.970   4.817 -19.697  0.00  0.00    +0.005 A 
ATOM     17  C   UNL     1     -13.050   5.130 -21.055  0.00  0.00    +0.000 A 
ATOM     18  C   UNL     1     -12.423   6.276 -21.542  0.00  0.00    +0.000 A 
ATOM     19  C   UNL     1     -11.728   7.112 -20.671  0.00  0.00    +0.000 A 
ATOM     20  C   UNL     1     -11.657   6.807 -19.310  0.00  0.00    +0.005 A 
ENDBRANCH  14  15
ENDBRANCH   2  14
BRANCH   4  21
ATOM     21  C   UNL     1     -16.737   6.737 -15.674  0.00  0.00    +0.114 C 
BRANCH  21  22
ATOM     22  N   UNL     1     -17.780   7.806 -15.530  0.00  0.00    -0.326 NA
ATOM     23  H   UNL     1     -17.633   8.309 -14.655  0.00  0.00    +0.119 HD
ATOM     24  H   UNL     1     -17.709   8.457 -16.313  0.00  0.00    +0.119 HD
ENDBRANCH  21  22
ENDBRANCH   4  21
TORSDOF 5
ENDMDL
MODEL 7
REMARK VINA RESULT:      -7.1      5.753      9.229
REMARK  Name = min_compound925.pdb
REMARK  6 active torsions:
REMARK  status: ('A' for Active; 'I' for Inactive)
REMARK    1  A    between atoms: _1  and  _13
REMARK    2  A    between atoms: _6  and  _7
REMARK    3  A    between atoms: _9  and  _14
REMARK    4  A    between atoms: _12  and  _21
REMARK    5  A    between atoms: _14  and  _15
REMARK    6  A    between atoms: _21  and  _22
REMARK                            x       y       z     vdW  Elec       q    Type
REMARK                         _______ _______ _______ _____ _____    ______ ____
ROOT
ATOM      1  C   UNL     1     -17.358   4.264  -9.003  0.00  0.00    +0.127 C 
ATOM      2  N   UNL     1     -16.884   3.209  -8.021  0.00  0.00    -0.321 N 
ATOM      3  C   UNL     1     -17.224   3.382  -6.640  0.00  0.00    +0.076 C 
ATOM      4  C   UNL     1     -17.519   4.553  -6.030  0.00  0.00    -0.020 C 
ATOM      5  C   UNL     1     -17.463   5.727  -6.904  0.00  0.00    +0.004 C 
ATOM      6  C   UNL     1     -17.357   5.608  -8.255  0.00  0.00    +0.000 C 
ENDROOT
BRANCH   1  11
ATOM      7  C   UNL     1     -15.409   4.117 -13.141  0.00  0.00    -0.050 A 
ATOM      8  C   UNL     1     -14.627   4.082 -14.420  0.00  0.00    +0.044 C 
ATOM      9  C   UNL     1     -14.895   4.830 -12.043  0.00  0.00    +0.004 A 
ATOM     10  C   UNL     1     -15.539   4.878 -10.761  0.00  0.00    +0.006 A 
ATOM     11  C   UNL     1     -16.770   4.237 -10.475  0.00  0.00    -0.023 A 
ATOM     12  C   UNL     1     -17.304   3.542 -11.574  0.00  0.00    +0.006 A 
ATOM     13  C   UNL     1     -16.637   3.475 -12.862  0.00  0.00    +0.004 A 
ENDBRANCH   1  11
BRANCH   2  14
ATOM     14  C   UNL     1     -16.678   1.870  -8.618  0.00  0.00    +0.140 C 
BRANCH  14  15
ATOM     15  C   UNL     1     -15.957   0.850  -7.756  0.00  0.00    -0.030 A 
ATOM     16  C   UNL     1     -16.533  -0.411  -7.526  0.00  0.00    +0.005 A 
ATOM     17  C   UNL     1     -15.875  -1.366  -6.750  0.00  0.00    +0.000 A 
ATOM     18  C   UNL     1     -14.632  -1.072  -6.192  0.00  0.00    +0.000 A 
ATOM     19  C   UNL     1     -14.045   0.171  -6.418  0.00  0.00    +0.000 A 
ATOM     20  C   UNL     1     -14.696   1.124  -7.204  0.00  0.00    +0.005 A 
ENDBRANCH  14  15
ENDBRANCH   2  14
BRANCH   4  21
ATOM     21  C   UNL     1     -17.838   4.624  -4.566  0.00  0.00    +0.114 C 
BRANCH  21  22
ATOM     22  N   UNL     1     -18.157   4.696  -3.102  0.00  0.00    -0.326 NA
ATOM     23  H   UNL     1     -18.885   4.017  -2.879  0.00  0.00    +0.119 HD
ATOM     24  H   UNL     1     -17.318   4.486  -2.560  0.00  0.00    +0.119 HD
ENDBRANCH  21  22
ENDBRANCH   4  21
TORSDOF 5
ENDMDL
MODEL 8
REMARK VINA RESULT:      -7.0      2.286      4.707
REMARK  Name = min_compound925.pdb
REMARK  6 active torsions:
REMARK  status: ('A' for Active; 'I' for Inactive)
REMARK    1  A    between atoms: _1  and  _13
REMARK    2  A    between atoms: _6  and  _7
REMARK    3  A    between atoms: _9  and  _14
REMARK    4  A    between atoms: _12  and  _21
REMARK    5  A    between atoms: _14  and  _15
REMARK    6  A    between atoms: _21  and  _22
REMARK                            x       y       z     vdW  Elec       q    Type
REMARK                         _______ _______ _______ _____ _____    ______ ____
ROOT
ATOM      1  C   UNL     1     -13.320   3.847 -15.782  0.00  0.00    +0.127 C 
ATOM      2  N   UNL     1     -13.856   4.474 -17.055  0.00  0.00    -0.321 N 
ATOM      3  C   UNL     1     -14.897   5.449 -16.931  0.00  0.00    +0.076 C 
ATOM      4  C   UNL     1     -15.764   5.567 -15.899  0.00  0.00    -0.020 C 
ATOM      5  C   UNL     1     -15.586   4.574 -14.837  0.00  0.00    +0.004 C 
ATOM      6  C   UNL     1     -14.493   3.764 -14.792  0.00  0.00    +0.000 C 
ENDROOT
BRANCH   1  11
ATOM      7  C   UNL     1     -10.678   0.164 -16.414  0.00  0.00    -0.050 A 
ATOM      8  C   UNL     1      -9.912  -1.083 -16.744  0.00  0.00    +0.044 C 
ATOM      9  C   UNL     1     -12.060   0.207 -16.671  0.00  0.00    +0.004 A 
ATOM     10  C   UNL     1     -12.871   1.369 -16.442  0.00  0.00    +0.006 A 
ATOM     11  C   UNL     1     -12.371   2.583 -15.910  0.00  0.00    -0.023 A 
ATOM     12  C   UNL     1     -10.994   2.542 -15.626  0.00  0.00    +0.006 A 
ATOM     13  C   UNL     1     -10.173   1.372 -15.883  0.00  0.00    +0.004 A 
ENDBRANCH   1  11
BRANCH   2  14
ATOM     14  C   UNL     1     -12.892   4.493 -18.178  0.00  0.00    +0.140 C 
BRANCH  14  15
ATOM     15  C   UNL     1     -13.358   3.867 -19.480  0.00  0.00    -0.030 A 
ATOM     16  C   UNL     1     -13.640   4.680 -20.590  0.00  0.00    +0.005 A 
ATOM     17  C   UNL     1     -14.054   4.119 -21.799  0.00  0.00    +0.000 A 
ATOM     18  C   UNL     1     -14.193   2.737 -21.913  0.00  0.00    +0.000 A 
ATOM     19  C   UNL     1     -13.908   1.918 -20.823  0.00  0.00    +0.000 A 
ATOM     20  C   UNL     1     -13.483   2.476 -19.615  0.00  0.00    +0.005 A 
ENDBRANCH  14  15
ENDBRANCH   2  14
BRANCH   4  21
ATOM     21  C   UNL     1     -16.838   6.615 -15.882  0.00  0.00    +0.114 C 
BRANCH  21  22
ATOM     22  N   UNL     1     -17.912   7.662 -15.864  0.00  0.00    -0.326 NA
ATOM     23  H   UNL     1     -18.624   7.408 -15.179  0.00  0.00    +0.119 HD
ATOM     24  H   UNL     1     -17.504   8.563 -15.613  0.00  0.00    +0.119 HD
ENDBRANCH  21  22
ENDBRANCH   4  21
TORSDOF 5
ENDMDL
MODEL 9
REMARK VINA RESULT:      -6.8      2.861      7.296
REMARK  Name = min_compound925.pdb
REMARK  6 active torsions:
REMARK  status: ('A' for Active; 'I' for Inactive)
REMARK    1  A    between atoms: _1  and  _13
REMARK    2  A    between atoms: _6  and  _7
REMARK    3  A    between atoms: _9  and  _14
REMARK    4  A    between atoms: _12  and  _21
REMARK    5  A    between atoms: _14  and  _15
REMARK    6  A    between atoms: _21  and  _22
REMARK                            x       y       z     vdW  Elec       q    Type
REMARK                         _______ _______ _______ _____ _____    ______ ____
ROOT
ATOM      1  C   UNL     1     -12.923   3.720 -16.357  0.00  0.00    +0.127 C 
ATOM      2  N   UNL     1     -12.754   2.723 -17.488  0.00  0.00    -0.321 N 
ATOM      3  C   UNL     1     -11.873   1.614 -17.274  0.00  0.00    +0.076 C 
ATOM      4  C   UNL     1     -10.848   1.565 -16.392  0.00  0.00    -0.020 C 
ATOM      5  C   UNL     1     -10.656   2.791 -15.613  0.00  0.00    +0.004 C 
ATOM      6  C   UNL     1     -11.578   3.791 -15.615  0.00  0.00    +0.000 C 
ENDROOT
BRANCH   1  11
ATOM      7  C   UNL     1     -14.992   7.635 -17.512  0.00  0.00    -0.050 A 
ATOM      8  C   UNL     1     -15.571   8.922 -18.021  0.00  0.00    +0.044 C 
ATOM      9  C   UNL     1     -13.646   7.333 -17.788  0.00  0.00    +0.004 A 
ATOM     10  C   UNL     1     -13.015   6.106 -17.394  0.00  0.00    +0.006 A 
ATOM     11  C   UNL     1     -13.671   5.084 -16.665  0.00  0.00    -0.023 A 
ATOM     12  C   UNL     1     -15.011   5.387 -16.363  0.00  0.00    +0.006 A 
ATOM     13  C   UNL     1     -15.653   6.619 -16.786  0.00  0.00    +0.004 A 
ENDBRANCH   1  11
BRANCH   2  14
ATOM     14  C   UNL     1     -13.913   2.639 -18.406  0.00  0.00    +0.140 C 
BRANCH  14  15
ATOM     15  C   UNL     1     -13.624   2.850 -19.881  0.00  0.00    -0.030 A 
ATOM     16  C   UNL     1     -13.440   1.744 -20.726  0.00  0.00    +0.005 A 
ATOM     17  C   UNL     1     -13.190   1.920 -22.088  0.00  0.00    +0.000 A 
ATOM     18  C   UNL     1     -13.119   3.205 -22.622  0.00  0.00    +0.000 A 
ATOM     19  C   UNL     1     -13.308   4.312 -21.796  0.00  0.00    +0.000 A 
ATOM     20  C   UNL     1     -13.570   4.137 -20.435  0.00  0.00    +0.005 A 
ENDBRANCH  14  15
ENDBRANCH   2  14
BRANCH   4  21
ATOM     21  C   UNL     1      -9.968   0.357 -16.266  0.00  0.00    +0.114 C 
BRANCH  21  22
ATOM     22  N   UNL     1      -9.087  -0.851 -16.140  0.00  0.00    -0.326 NA
ATOM     23  H   UNL     1      -8.331  -0.653 -15.484  0.00  0.00    +0.119 HD
ATOM     24  H   UNL     1      -9.638  -1.638 -15.797  0.00  0.00    +0.119 HD
ENDBRANCH  21  22
ENDBRANCH   4  21
TORSDOF 5
ENDMDL
