MODEL 1
REMARK VINA RESULT:      -6.0      0.000      0.000
REMARK  Name = min_compound915.pdb
REMARK  4 active torsions:
REMARK  status: ('A' for Active; 'I' for Inactive)
REMARK    1  A    between atoms: _4  and  _6
REMARK    2  A    between atoms: _7  and  _18
REMARK    3  A    between atoms: _10  and  _11
REMARK    4  A    between atoms: _18  and  _19
REMARK                            x       y       z     vdW  Elec       q    Type
REMARK                         _______ _______ _______ _____ _____    ______ ____
ROOT
ATOM      1  C   UNL     1     -15.124   3.322 -17.009  0.00  0.00    +0.222 C 
ATOM      2  N   UNL     1     -13.965   2.729 -17.499  0.00  0.00    -0.227 N 
ATOM      3  N   UNL     1     -14.006   2.650 -18.861  0.00  0.00    -0.269 N 
ATOM      4  H   UNL     1     -13.410   2.136 -19.453  0.00  0.00    +0.170 HD
ATOM      5  C   UNL     1     -15.032   3.422 -19.208  0.00  0.00    +0.092 C 
ATOM      6  C   UNL     1     -15.755   3.887 -18.101  0.00  0.00    +0.001 C 
ENDROOT
BRANCH   2   7
ATOM      7  C   UNL     1     -12.752   2.352 -16.844  0.00  0.00    +0.052 A 
ATOM      8  C   UNL     1     -12.333   1.012 -16.912  0.00  0.00    +0.044 A 
ATOM      9  C   UNL     1     -11.142   0.622 -16.301  0.00  0.00    +0.043 A 
ATOM     10 CL   UNL     1     -10.643  -1.024 -16.373  0.00  0.00    -0.083 Cl
ATOM     11  C   UNL     1     -10.350   1.553 -15.635  0.00  0.00    +0.020 A 
ATOM     12  C   UNL     1     -10.744   2.889 -15.590  0.00  0.00    +0.003 A 
ATOM     13  C   UNL     1     -11.936   3.292 -16.202  0.00  0.00    +0.025 A 
ENDBRANCH   2   7
BRANCH   1  17
ATOM     14  C   UNL     1     -15.944   3.782 -13.523  0.00  0.00    +0.019 A 
ATOM     15  C   UNL     1     -16.684   2.624 -13.828  0.00  0.00    +0.019 A 
ATOM     16  C   UNL     1     -16.457   2.338 -15.156  0.00  0.00    +0.088 A 
ATOM     17  N   UNL     1     -15.577   3.265 -15.688  0.00  0.00    -0.330 N 
ATOM     18  C   UNL     1     -15.295   4.163 -14.676  0.00  0.00    +0.088 A 
ENDBRANCH   1  17
BRANCH   6  19
ATOM     19  C   UNL     1     -16.964   4.636 -18.160  0.00  0.00    +0.114 C 
BRANCH  19  20
ATOM     20  N   UNL     1     -18.207   5.388 -18.216  0.00  0.00    -0.326 NA
ATOM     21  H   UNL     1     -18.940   4.871 -17.729  0.00  0.00    +0.119 HD
ATOM     22  H   UNL     1     -18.076   6.295 -17.769  0.00  0.00    +0.119 HD
ENDBRANCH  19  20
ENDBRANCH   6  19
TORSDOF 4
ENDMDL
MODEL 2
REMARK VINA RESULT:      -6.0      2.997      3.654
REMARK  Name = min_compound915.pdb
REMARK  4 active torsions:
REMARK  status: ('A' for Active; 'I' for Inactive)
REMARK    1  A    between atoms: _4  and  _6
REMARK    2  A    between atoms: _7  and  _18
REMARK    3  A    between atoms: _10  and  _11
REMARK    4  A    between atoms: _18  and  _19
REMARK                            x       y       z     vdW  Elec       q    Type
REMARK                         _______ _______ _______ _____ _____    ______ ____
ROOT
ATOM      1  C   UNL     1     -13.150   3.775 -19.407  0.00  0.00    +0.222 C 
ATOM      2  N   UNL     1     -12.865   2.547 -18.818  0.00  0.00    -0.227 N 
ATOM      3  N   UNL     1     -13.342   1.525 -19.586  0.00  0.00    -0.269 N 
ATOM      4  H   UNL     1     -13.430   0.576 -19.339  0.00  0.00    +0.170 HD
ATOM      5  C   UNL     1     -13.663   2.099 -20.743  0.00  0.00    +0.092 C 
ATOM      6  C   UNL     1     -13.545   3.495 -20.701  0.00  0.00    +0.001 C 
ENDROOT
BRANCH   2   7
ATOM      7  C   UNL     1     -12.066   2.212 -17.681  0.00  0.00    +0.052 A 
ATOM      8  C   UNL     1     -11.284   1.045 -17.722  0.00  0.00    +0.044 A 
ATOM      9  C   UNL     1     -10.478   0.707 -16.635  0.00  0.00    +0.043 A 
ATOM     10 CL   UNL     1      -9.536  -0.733 -16.685  0.00  0.00    -0.083 Cl
ATOM     11  C   UNL     1     -10.428   1.525 -15.510  0.00  0.00    +0.020 A 
ATOM     12  C   UNL     1     -11.178   2.700 -15.475  0.00  0.00    +0.003 A 
ATOM     13  C   UNL     1     -11.987   3.050 -16.561  0.00  0.00    +0.025 A 
ENDBRANCH   2   7
BRANCH   1  17
ATOM     14  C   UNL     1     -12.463   7.070 -18.100  0.00  0.00    +0.019 A 
ATOM     15  C   UNL     1     -13.732   6.815 -17.546  0.00  0.00    +0.019 A 
ATOM     16  C   UNL     1     -14.118   5.565 -17.980  0.00  0.00    +0.088 A 
ATOM     17  N   UNL     1     -13.119   5.017 -18.767  0.00  0.00    -0.330 N 
ATOM     18  C   UNL     1     -12.121   5.969 -18.854  0.00  0.00    +0.088 A 
ENDBRANCH   1  17
BRANCH   6  19
ATOM     19  C   UNL     1     -13.926   4.386 -21.745  0.00  0.00    +0.114 C 
BRANCH  19  20
ATOM     20  N   UNL     1     -14.328   5.290 -22.810  0.00  0.00    -0.326 NA
ATOM     21  H   UNL     1     -14.158   6.253 -22.521  0.00  0.00    +0.119 HD
ATOM     22  H   UNL     1     -13.788   5.086 -23.650  0.00  0.00    +0.119 HD
ENDBRANCH  19  20
ENDBRANCH   6  19
TORSDOF 4
ENDMDL
MODEL 3
REMARK VINA RESULT:      -6.0      8.168     10.531
REMARK  Name = min_compound915.pdb
REMARK  4 active torsions:
REMARK  status: ('A' for Active; 'I' for Inactive)
REMARK    1  A    between atoms: _4  and  _6
REMARK    2  A    between atoms: _7  and  _18
REMARK    3  A    between atoms: _10  and  _11
REMARK    4  A    between atoms: _18  and  _19
REMARK                            x       y       z     vdW  Elec       q    Type
REMARK                         _______ _______ _______ _____ _____    ______ ____
ROOT
ATOM      1  C   UNL     1     -17.422   0.965  -7.073  0.00  0.00    +0.222 C 
ATOM      2  N   UNL     1     -17.903   1.880  -8.005  0.00  0.00    -0.227 N 
ATOM      3  N   UNL     1     -19.125   1.492  -8.471  0.00  0.00    -0.269 N 
ATOM      4  H   UNL     1     -19.617   1.851  -9.245  0.00  0.00    +0.170 HD
ATOM      5  C   UNL     1     -19.503   0.519  -7.646  0.00  0.00    +0.092 C 
ATOM      6  C   UNL     1     -18.495   0.160  -6.740  0.00  0.00    +0.001 C 
ENDROOT
BRANCH   2   7
ATOM      7  C   UNL     1     -17.410   3.160  -8.408  0.00  0.00    +0.052 A 
ATOM      8  C   UNL     1     -16.544   3.236  -9.512  0.00  0.00    +0.044 A 
ATOM      9  C   UNL     1     -16.067   4.474  -9.940  0.00  0.00    +0.043 A 
ATOM     10 CL   UNL     1     -14.992   4.559 -11.282  0.00  0.00    -0.083 Cl
ATOM     11  C   UNL     1     -16.452   5.644  -9.291  0.00  0.00    +0.020 A 
ATOM     12  C   UNL     1     -17.335   5.579  -8.215  0.00  0.00    +0.003 A 
ATOM     13  C   UNL     1     -17.823   4.342  -7.779  0.00  0.00    +0.025 A 
ENDBRANCH   2   7
BRANCH   1  17
ATOM     14  C   UNL     1     -14.184   1.147  -5.486  0.00  0.00    +0.019 A 
ATOM     15  C   UNL     1     -13.966   0.132  -6.437  0.00  0.00    +0.019 A 
ATOM     16  C   UNL     1     -15.150  -0.041  -7.121  0.00  0.00    +0.088 A 
ATOM     17  N   UNL     1     -16.097   0.851  -6.646  0.00  0.00    -0.330 N 
ATOM     18  C   UNL     1     -15.493   1.554  -5.621  0.00  0.00    +0.088 A 
ENDBRANCH   1  17
BRANCH   6  19
ATOM     19  C   UNL     1     -18.563  -0.921  -5.815  0.00  0.00    +0.114 C 
BRANCH  19  20
ATOM     20  N   UNL     1     -18.630  -2.014  -4.860  0.00  0.00    -0.326 NA
ATOM     21  H   UNL     1     -18.787  -1.638  -3.924  0.00  0.00    +0.119 HD
ATOM     22  H   UNL     1     -19.397  -2.637  -5.110  0.00  0.00    +0.119 HD
ENDBRANCH  19  20
ENDBRANCH   6  19
TORSDOF 4
ENDMDL
MODEL 4
REMARK VINA RESULT:      -5.9      1.955      2.157
REMARK  Name = min_compound915.pdb
REMARK  4 active torsions:
REMARK  status: ('A' for Active; 'I' for Inactive)
REMARK    1  A    between atoms: _4  and  _6
REMARK    2  A    between atoms: _7  and  _18
REMARK    3  A    between atoms: _10  and  _11
REMARK    4  A    between atoms: _18  and  _19
REMARK                            x       y       z     vdW  Elec       q    Type
REMARK                         _______ _______ _______ _____ _____    ______ ____
ROOT
ATOM      1  C   UNL     1     -14.648   5.018 -16.050  0.00  0.00    +0.222 C 
ATOM      2  N   UNL     1     -13.427   4.721 -16.645  0.00  0.00    -0.227 N 
ATOM      3  N   UNL     1     -13.081   5.691 -17.540  0.00  0.00    -0.269 N 
ATOM      4  H   UNL     1     -12.365   5.660 -18.216  0.00  0.00    +0.170 HD
ATOM      5  C   UNL     1     -13.927   6.688 -17.295  0.00  0.00    +0.092 C 
ATOM      6  C   UNL     1     -14.914   6.338 -16.362  0.00  0.00    +0.001 C 
ENDROOT
BRANCH   2   7
ATOM      7  C   UNL     1     -12.470   3.695 -16.369  0.00  0.00    +0.052 A 
ATOM      8  C   UNL     1     -12.828   2.355 -16.593  0.00  0.00    +0.044 A 
ATOM      9  C   UNL     1     -11.906   1.337 -16.353  0.00  0.00    +0.043 A 
ATOM     10 CL   UNL     1     -12.357  -0.304 -16.613  0.00  0.00    -0.083 Cl
ATOM     11  C   UNL     1     -10.622   1.636 -15.906  0.00  0.00    +0.020 A 
ATOM     12  C   UNL     1     -10.250   2.965 -15.711  0.00  0.00    +0.003 A 
ATOM     13  C   UNL     1     -11.166   3.994 -15.951  0.00  0.00    +0.025 A 
ENDBRANCH   2   7
BRANCH   1  17
ATOM     14  C   UNL     1     -16.479   2.997 -13.684  0.00  0.00    +0.019 A 
ATOM     15  C   UNL     1     -17.016   2.544 -14.904  0.00  0.00    +0.019 A 
ATOM     16  C   UNL     1     -16.393   3.253 -15.907  0.00  0.00    +0.088 A 
ATOM     17  N   UNL     1     -15.462   4.118 -15.356  0.00  0.00    -0.330 N 
ATOM     18  C   UNL     1     -15.550   3.968 -13.985  0.00  0.00    +0.088 A 
ENDBRANCH   1  17
BRANCH   6  19
ATOM     19  C   UNL     1     -16.020   7.152 -15.986  0.00  0.00    +0.114 C 
BRANCH  19  20
ATOM     20  N   UNL     1     -17.139   7.991 -15.592  0.00  0.00    -0.326 NA
ATOM     21  H   UNL     1     -16.961   8.383 -14.667  0.00  0.00    +0.119 HD
ATOM     22  H   UNL     1     -17.250   8.748 -16.266  0.00  0.00    +0.119 HD
ENDBRANCH  19  20
ENDBRANCH   6  19
TORSDOF 4
ENDMDL
MODEL 5
REMARK VINA RESULT:      -5.9      2.280      3.728
REMARK  Name = min_compound915.pdb
REMARK  4 active torsions:
REMARK  status: ('A' for Active; 'I' for Inactive)
REMARK    1  A    between atoms: _4  and  _6
REMARK    2  A    between atoms: _7  and  _18
REMARK    3  A    between atoms: _10  and  _11
REMARK    4  A    between atoms: _18  and  _19
REMARK                            x       y       z     vdW  Elec       q    Type
REMARK                         _______ _______ _______ _____ _____    ______ ____
ROOT
ATOM      1  C   UNL     1     -14.090   5.114 -16.925  0.00  0.00    +0.222 C 
ATOM      2  N   UNL     1     -13.627   4.202 -15.982  0.00  0.00    -0.227 N 
ATOM      3  N   UNL     1     -14.510   4.091 -14.948  0.00  0.00    -0.269 N 
ATOM      4  H   UNL     1     -14.367   3.654 -14.077  0.00  0.00    +0.170 HD
ATOM      5  C   UNL     1     -15.608   4.705 -15.380  0.00  0.00    +0.092 C 
ATOM      6  C   UNL     1     -15.417   5.345 -16.613  0.00  0.00    +0.001 C 
ENDROOT
BRANCH   2   7
ATOM      7  C   UNL     1     -12.511   3.310 -16.006  0.00  0.00    +0.052 A 
ATOM      8  C   UNL     1     -12.739   1.944 -16.245  0.00  0.00    +0.044 A 
ATOM      9  C   UNL     1     -11.666   1.055 -16.297  0.00  0.00    +0.043 A 
ATOM     10 CL   UNL     1     -11.955  -0.619 -16.573  0.00  0.00    -0.083 Cl
ATOM     11  C   UNL     1     -10.361   1.510 -16.127  0.00  0.00    +0.020 A 
ATOM     12  C   UNL     1     -10.125   2.868 -15.920  0.00  0.00    +0.003 A 
ATOM     13  C   UNL     1     -11.194   3.769 -15.870  0.00  0.00    +0.025 A 
ENDBRANCH   2   7
BRANCH   1  17
ATOM     14  C   UNL     1     -11.938   7.152 -18.987  0.00  0.00    +0.019 A 
ATOM     15  C   UNL     1     -12.273   6.116 -19.880  0.00  0.00    +0.019 A 
ATOM     16  C   UNL     1     -13.104   5.252 -19.202  0.00  0.00    +0.088 A 
ATOM     17  N   UNL     1     -13.322   5.725 -17.919  0.00  0.00    -0.330 N 
ATOM     18  C   UNL     1     -12.573   6.880 -17.795  0.00  0.00    +0.088 A 
ENDBRANCH   1  17
BRANCH   6  19
ATOM     19  C   UNL     1     -16.370   6.175 -17.269  0.00  0.00    +0.114 C 
BRANCH  19  20
ATOM     20  N   UNL     1     -17.353   7.011 -17.937  0.00  0.00    -0.326 NA
ATOM     21  H   UNL     1     -17.334   7.948 -17.532  0.00  0.00    +0.119 HD
ATOM     22  H   UNL     1     -17.134   7.065 -18.931  0.00  0.00    +0.119 HD
ENDBRANCH  19  20
ENDBRANCH   6  19
TORSDOF 4
ENDMDL
MODEL 6
REMARK VINA RESULT:      -5.9     11.504     13.764
REMARK  Name = min_compound915.pdb
REMARK  4 active torsions:
REMARK  status: ('A' for Active; 'I' for Inactive)
REMARK    1  A    between atoms: _4  and  _6
REMARK    2  A    between atoms: _7  and  _18
REMARK    3  A    between atoms: _10  and  _11
REMARK    4  A    between atoms: _18  and  _19
REMARK                            x       y       z     vdW  Elec       q    Type
REMARK                         _______ _______ _______ _____ _____    ______ ____
ROOT
ATOM      1  C   UNL     1     -16.174  -0.133  -4.678  0.00  0.00    +0.222 C 
ATOM      2  N   UNL     1     -16.730  -1.145  -3.901  0.00  0.00    -0.227 N 
ATOM      3  N   UNL     1     -17.873  -1.618  -4.476  0.00  0.00    -0.269 N 
ATOM      4  H   UNL     1     -18.552  -2.206  -4.073  0.00  0.00    +0.170 HD
ATOM      5  C   UNL     1     -17.865  -1.106  -5.704  0.00  0.00    +0.092 C 
ATOM      6  C   UNL     1     -16.821  -0.190  -5.898  0.00  0.00    +0.001 C 
ENDROOT
BRANCH   2   7
ATOM      7  C   UNL     1     -16.234  -1.822  -2.744  0.00  0.00    +0.052 A 
ATOM      8  C   UNL     1     -15.240  -2.801  -2.906  0.00  0.00    +0.044 A 
ATOM      9  C   UNL     1     -14.723  -3.461  -1.791  0.00  0.00    +0.043 A 
ATOM     10 CL   UNL     1     -13.516  -4.671  -1.997  0.00  0.00    -0.083 Cl
ATOM     11  C   UNL     1     -15.173  -3.148  -0.511  0.00  0.00    +0.020 A 
ATOM     12  C   UNL     1     -16.137  -2.156  -0.341  0.00  0.00    +0.003 A 
ATOM     13  C   UNL     1     -16.660  -1.486  -1.452  0.00  0.00    +0.025 A 
ENDBRANCH   2   7
BRANCH   1  17
ATOM     14  C   UNL     1     -14.239   2.722  -3.612  0.00  0.00    +0.019 A 
ATOM     15  C   UNL     1     -13.288   1.690  -3.503  0.00  0.00    +0.019 A 
ATOM     16  C   UNL     1     -13.912   0.523  -3.885  0.00  0.00    +0.088 A 
ATOM     17  N   UNL     1     -15.219   0.794  -4.255  0.00  0.00    -0.330 N 
ATOM     18  C   UNL     1     -15.411   2.147  -4.053  0.00  0.00    +0.088 A 
ENDBRANCH   1  17
BRANCH   6  19
ATOM     19  C   UNL     1     -16.624   0.601  -7.065  0.00  0.00    +0.114 C 
BRANCH  19  20
ATOM     20  N   UNL     1     -16.432   1.420  -8.251  0.00  0.00    -0.326 NA
ATOM     21  H   UNL     1     -17.254   2.008  -8.395  0.00  0.00    +0.119 HD
ATOM     22  H   UNL     1     -15.610   2.010  -8.126  0.00  0.00    +0.119 HD
ENDBRANCH  19  20
ENDBRANCH   6  19
TORSDOF 4
ENDMDL
MODEL 7
REMARK VINA RESULT:      -5.8      2.505      5.115
REMARK  Name = min_compound915.pdb
REMARK  4 active torsions:
REMARK  status: ('A' for Active; 'I' for Inactive)
REMARK    1  A    between atoms: _4  and  _6
REMARK    2  A    between atoms: _7  and  _18
REMARK    3  A    between atoms: _10  and  _11
REMARK    4  A    between atoms: _18  and  _19
REMARK                            x       y       z     vdW  Elec       q    Type
REMARK                         _______ _______ _______ _____ _____    ______ ____
ROOT
ATOM      1  C   UNL     1     -13.921   2.722 -17.899  0.00  0.00    +0.222 C 
ATOM      2  N   UNL     1     -14.921   3.470 -17.286  0.00  0.00    -0.227 N 
ATOM      3  N   UNL     1     -15.644   4.158 -18.217  0.00  0.00    -0.269 N 
ATOM      4  H   UNL     1     -16.292   4.883 -18.061  0.00  0.00    +0.170 HD
ATOM      5  C   UNL     1     -15.275   3.631 -19.381  0.00  0.00    +0.092 C 
ATOM      6  C   UNL     1     -14.221   2.717 -19.248  0.00  0.00    +0.001 C 
ENDROOT
BRANCH   2   7
ATOM      7  C   UNL     1     -15.373   3.504 -15.930  0.00  0.00    +0.052 A 
ATOM      8  C   UNL     1     -15.212   4.689 -15.192  0.00  0.00    +0.044 A 
ATOM      9  C   UNL     1     -15.664   4.757 -13.875  0.00  0.00    +0.043 A 
ATOM     10 CL   UNL     1     -15.449   6.206 -12.971  0.00  0.00    -0.083 Cl
ATOM     11  C   UNL     1     -16.291   3.664 -13.284  0.00  0.00    +0.020 A 
ATOM     12  C   UNL     1     -16.481   2.495 -14.020  0.00  0.00    +0.003 A 
ATOM     13  C   UNL     1     -16.034   2.417 -15.344  0.00  0.00    +0.025 A 
ENDBRANCH   2   7
BRANCH   1  17
ATOM     14  C   UNL     1     -11.353   0.692 -16.375  0.00  0.00    +0.019 A 
ATOM     15  C   UNL     1     -10.773   1.972 -16.296  0.00  0.00    +0.019 A 
ATOM     16  C   UNL     1     -11.667   2.856 -16.858  0.00  0.00    +0.088 A 
ATOM     17  N   UNL     1     -12.803   2.175 -17.265  0.00  0.00    -0.330 N 
ATOM     18  C   UNL     1     -12.579   0.840 -16.986  0.00  0.00    +0.088 A 
ENDBRANCH   1  17
BRANCH   6  19
ATOM     19  C   UNL     1     -13.539   2.080 -20.325  0.00  0.00    +0.114 C 
BRANCH  19  20
ATOM     20  N   UNL     1     -12.855   1.420 -21.424  0.00  0.00    -0.326 NA
ATOM     21  H   UNL     1     -12.360   0.600 -21.073  0.00  0.00    +0.119 HD
ATOM     22  H   UNL     1     -13.538   1.131 -22.124  0.00  0.00    +0.119 HD
ENDBRANCH  19  20
ENDBRANCH   6  19
TORSDOF 4
ENDMDL
MODEL 8
REMARK VINA RESULT:      -5.8      9.819     12.089
REMARK  Name = min_compound915.pdb
REMARK  4 active torsions:
REMARK  status: ('A' for Active; 'I' for Inactive)
REMARK    1  A    between atoms: _4  and  _6
REMARK    2  A    between atoms: _7  and  _18
REMARK    3  A    between atoms: _10  and  _11
REMARK    4  A    between atoms: _18  and  _19
REMARK                            x       y       z     vdW  Elec       q    Type
REMARK                         _______ _______ _______ _____ _____    ______ ____
ROOT
ATOM      1  C   UNL     1     -17.223   3.214  -5.525  0.00  0.00    +0.222 C 
ATOM      2  N   UNL     1     -16.274   3.230  -4.508  0.00  0.00    -0.227 N 
ATOM      3  N   UNL     1     -16.288   4.430  -3.858  0.00  0.00    -0.269 N 
ATOM      4  H   UNL     1     -15.624   4.777  -3.218  0.00  0.00    +0.170 HD
ATOM      5  C   UNL     1     -17.399   5.025  -4.282  0.00  0.00    +0.092 C 
ATOM      6  C   UNL     1     -18.037   4.309  -5.305  0.00  0.00    +0.001 C 
ENDROOT
BRANCH   2   7
ATOM      7  C   UNL     1     -15.445   2.193  -3.979  0.00  0.00    +0.052 A 
ATOM      8  C   UNL     1     -16.026   0.951  -3.671  0.00  0.00    +0.044 A 
ATOM      9  C   UNL     1     -15.235  -0.085  -3.174  0.00  0.00    +0.043 A 
ATOM     10 CL   UNL     1     -15.956  -1.599  -2.783  0.00  0.00    -0.083 Cl
ATOM     11  C   UNL     1     -13.866   0.093  -2.994  0.00  0.00    +0.020 A 
ATOM     12  C   UNL     1     -13.278   1.312  -3.326  0.00  0.00    +0.003 A 
ATOM     13  C   UNL     1     -14.062   2.357  -3.827  0.00  0.00    +0.025 A 
ENDBRANCH   2   7
BRANCH   1  17
ATOM     14  C   UNL     1     -16.743   1.205  -8.486  0.00  0.00    +0.019 A 
ATOM     15  C   UNL     1     -17.869   0.584  -7.913  0.00  0.00    +0.019 A 
ATOM     16  C   UNL     1     -18.159   1.265  -6.752  0.00  0.00    +0.088 A 
ATOM     17  N   UNL     1     -17.266   2.312  -6.591  0.00  0.00    -0.330 N 
ATOM     18  C   UNL     1     -16.384   2.241  -7.653  0.00  0.00    +0.088 A 
ENDBRANCH   1  17
BRANCH   6  19
ATOM     19  C   UNL     1     -19.179   4.750  -6.033  0.00  0.00    +0.114 C 
BRANCH  19  20
ATOM     20  N   UNL     1     -20.335   5.210  -6.783  0.00  0.00    -0.326 NA
ATOM     21  H   UNL     1     -21.110   5.380  -6.142  0.00  0.00    +0.119 HD
ATOM     22  H   UNL     1     -20.101   6.074  -7.271  0.00  0.00    +0.119 HD
ENDBRANCH  19  20
ENDBRANCH   6  19
TORSDOF 4
ENDMDL
MODEL 9
REMARK VINA RESULT:      -5.8      2.018      2.385
REMARK  Name = min_compound915.pdb
REMARK  4 active torsions:
REMARK  status: ('A' for Active; 'I' for Inactive)
REMARK    1  A    between atoms: _4  and  _6
REMARK    2  A    between atoms: _7  and  _18
REMARK    3  A    between atoms: _10  and  _11
REMARK    4  A    between atoms: _18  and  _19
REMARK                            x       y       z     vdW  Elec       q    Type
REMARK                         _______ _______ _______ _____ _____    ______ ____
ROOT
ATOM      1  C   UNL     1     -13.705   4.147 -16.874  0.00  0.00    +0.222 C 
ATOM      2  N   UNL     1     -12.793   3.334 -17.541  0.00  0.00    -0.227 N 
ATOM      3  N   UNL     1     -12.192   4.021 -18.556  0.00  0.00    -0.269 N 
ATOM      4  H   UNL     1     -11.639   3.657 -19.285  0.00  0.00    +0.170 HD
ATOM      5  C   UNL     1     -12.521   5.291 -18.339  0.00  0.00    +0.092 C 
ATOM      6  C   UNL     1     -13.444   5.437 -17.294  0.00  0.00    +0.001 C 
ENDROOT
BRANCH   2   7
ATOM      7  C   UNL     1     -12.312   2.021 -17.246  0.00  0.00    +0.052 A 
ATOM      8  C   UNL     1     -10.960   1.725 -17.485  0.00  0.00    +0.044 A 
ATOM      9  C   UNL     1     -10.460   0.458 -17.185  0.00  0.00    +0.043 A 
ATOM     10 CL   UNL     1      -8.806   0.096 -17.496  0.00  0.00    -0.083 Cl
ATOM     11  C   UNL     1     -11.287  -0.518 -16.635  0.00  0.00    +0.020 A 
ATOM     12  C   UNL     1     -12.622  -0.221 -16.367  0.00  0.00    +0.003 A 
ATOM     13  C   UNL     1     -13.133   1.048 -16.661  0.00  0.00    +0.025 A 
ENDBRANCH   2   7
BRANCH   1  17
ATOM     14  C   UNL     1     -15.921   3.252 -14.167  0.00  0.00    +0.019 A 
ATOM     15  C   UNL     1     -16.702   2.907 -15.286  0.00  0.00    +0.019 A 
ATOM     16  C   UNL     1     -15.958   3.208 -16.406  0.00  0.00    +0.088 A 
ATOM     17  N   UNL     1     -14.724   3.708 -16.025  0.00  0.00    -0.330 N 
ATOM     18  C   UNL     1     -14.730   3.755 -14.644  0.00  0.00    +0.088 A 
ENDBRANCH   1  17
BRANCH   6  19
ATOM     19  C   UNL     1     -14.067   6.658 -16.907  0.00  0.00    +0.114 C 
BRANCH  19  20
ATOM     20  N   UNL     1     -14.716   7.898 -16.515  0.00  0.00    -0.326 NA
ATOM     21  H   UNL     1     -15.138   7.784 -15.593  0.00  0.00    +0.119 HD
ATOM     22  H   UNL     1     -14.025   8.647 -16.483  0.00  0.00    +0.119 HD
ENDBRANCH  19  20
ENDBRANCH   6  19
TORSDOF 4
ENDMDL
