MODEL 1
REMARK VINA RESULT:      -7.9      0.000      0.000
REMARK  Name = min_compound964.pdb
REMARK  4 active torsions:
REMARK  status: ('A' for Active; 'I' for Inactive)
REMARK    1  A    between atoms: _5  and  _7
REMARK    2  A    between atoms: _7  and  _9
REMARK    3  A    between atoms: _9  and  _10
REMARK    4  A    between atoms: _9  and  _16
REMARK                            x       y       z     vdW  Elec       q    Type
REMARK                         _______ _______ _______ _____ _____    ______ ____
ROOT
ATOM      1  P   UNL     1     -13.511   3.150 -17.245  0.00  0.00    +0.263 P 
ATOM      2  O   UNL     1     -12.635   3.036 -18.457  0.00  0.00    -0.281 OA
ENDROOT
BRANCH   1   3
ATOM      3  C   UNL     1     -13.613   4.631 -17.457  0.00  0.00    +0.041 A 
ATOM      4  C   UNL     1     -14.834   5.296 -17.749  0.00  0.00    +0.014 A 
ATOM      5  C   UNL     1     -14.933   6.676 -17.967  0.00  0.00    +0.001 A 
ATOM      6  C   UNL     1     -13.794   7.466 -17.930  0.00  0.00    +0.000 A 
ATOM      7  C   UNL     1     -12.562   6.872 -17.695  0.00  0.00    +0.001 A 
ATOM      8  C   UNL     1     -12.483   5.491 -17.477  0.00  0.00    +0.014 A 
ENDBRANCH   1   3
BRANCH   1   9
ATOM      9  C   UNL     1     -14.387   3.263 -16.033  0.00  0.00    +0.041 A 
ATOM     10  C   UNL     1     -15.588   2.522 -15.876  0.00  0.00    +0.014 A 
ATOM     11  C   UNL     1     -16.396   2.589 -14.734  0.00  0.00    +0.001 A 
ATOM     12  C   UNL     1     -16.024   3.397 -13.670  0.00  0.00    +0.000 A 
ATOM     13  C   UNL     1     -14.842   4.120 -13.745  0.00  0.00    +0.001 A 
ATOM     14  C   UNL     1     -14.044   4.038 -14.893  0.00  0.00    +0.014 A 
ENDBRANCH   1   9
BRANCH   1  15
ATOM     15  O   UNL     1     -13.408   1.668 -17.032  0.00  0.00    -0.318 OA
BRANCH  15  20
ATOM     16  C   UNL     1      -9.990   0.705 -15.233  0.00  0.00    +0.003 C 
ATOM     17  C   UNL     1      -9.665  -0.621 -16.035  0.00  0.00    +0.000 C 
ATOM     18  C   UNL     1     -10.157  -0.568 -17.451  0.00  0.00    +0.003 C 
ATOM     19  C   UNL     1     -11.750  -0.285 -17.039  0.00  0.00    +0.032 C 
ATOM     20  C   UNL     1     -12.171   0.925 -16.551  0.00  0.00    +0.127 C 
ATOM     21  C   UNL     1     -11.112   1.664 -15.789  0.00  0.00    +0.032 C 
ENDBRANCH  15  20
ENDBRANCH   1  15
TORSDOF 4
ENDMDL
MODEL 2
REMARK VINA RESULT:      -7.7      1.775      6.022
REMARK  Name = min_compound964.pdb
REMARK  4 active torsions:
REMARK  status: ('A' for Active; 'I' for Inactive)
REMARK    1  A    between atoms: _5  and  _7
REMARK    2  A    between atoms: _7  and  _9
REMARK    3  A    between atoms: _9  and  _10
REMARK    4  A    between atoms: _9  and  _16
REMARK                            x       y       z     vdW  Elec       q    Type
REMARK                         _______ _______ _______ _____ _____    ______ ____
ROOT
ATOM      1  P   UNL     1     -12.722   1.569 -16.592  0.00  0.00    +0.263 P 
ATOM      2  O   UNL     1     -13.516   0.299 -16.518  0.00  0.00    -0.281 OA
ENDROOT
BRANCH   1   3
ATOM      3  C   UNL     1     -11.451   0.774 -16.616  0.00  0.00    +0.041 A 
ATOM      4  C   UNL     1     -10.435   0.954 -17.591  0.00  0.00    +0.014 A 
ATOM      5  C   UNL     1      -9.253   0.201 -17.629  0.00  0.00    +0.001 A 
ATOM      6  C   UNL     1      -9.042  -0.802 -16.695  0.00  0.00    +0.000 A 
ATOM      7  C   UNL     1     -10.016  -1.060 -15.743  0.00  0.00    +0.001 A 
ATOM      8  C   UNL     1     -11.190  -0.296 -15.718  0.00  0.00    +0.014 A 
ENDBRANCH   1   3
BRANCH   1   9
ATOM      9  C   UNL     1     -11.929   2.840 -16.667  0.00  0.00    +0.041 A 
ATOM     10  C   UNL     1     -12.180   3.852 -17.630  0.00  0.00    +0.014 A 
ATOM     11  C   UNL     1     -11.472   5.059 -17.689  0.00  0.00    +0.001 A 
ATOM     12  C   UNL     1     -10.479   5.324 -16.758  0.00  0.00    +0.000 A 
ATOM     13  C   UNL     1     -10.209   4.391 -15.767  0.00  0.00    +0.001 A 
ATOM     14  C   UNL     1     -10.929   3.190 -15.722  0.00  0.00    +0.014 A 
ENDBRANCH   1   9
BRANCH   1  15
ATOM     15  O   UNL     1     -13.994   2.365 -16.569  0.00  0.00    -0.318 OA
BRANCH  15  20
ATOM     16  C   UNL     1     -16.719   2.624 -13.677  0.00  0.00    +0.003 C 
ATOM     17  C   UNL     1     -16.239   3.982 -13.020  0.00  0.00    +0.000 C 
ATOM     18  C   UNL     1     -15.644   4.924 -14.025  0.00  0.00    +0.003 C 
ATOM     19  C   UNL     1     -14.467   3.858 -14.542  0.00  0.00    +0.032 C 
ATOM     20  C   UNL     1     -14.764   2.770 -15.320  0.00  0.00    +0.127 C 
ATOM     21  C   UNL     1     -16.143   2.228 -15.092  0.00  0.00    +0.032 C 
ENDBRANCH  15  20
ENDBRANCH   1  15
TORSDOF 4
ENDMDL
MODEL 3
REMARK VINA RESULT:      -7.4      1.039      2.003
REMARK  Name = min_compound964.pdb
REMARK  4 active torsions:
REMARK  status: ('A' for Active; 'I' for Inactive)
REMARK    1  A    between atoms: _5  and  _7
REMARK    2  A    between atoms: _7  and  _9
REMARK    3  A    between atoms: _9  and  _10
REMARK    4  A    between atoms: _9  and  _16
REMARK                            x       y       z     vdW  Elec       q    Type
REMARK                         _______ _______ _______ _____ _____    ______ ____
ROOT
ATOM      1  P   UNL     1     -13.008   3.773 -16.295  0.00  0.00    +0.263 P 
ATOM      2  O   UNL     1     -11.809   4.103 -17.134  0.00  0.00    -0.281 OA
ENDROOT
BRANCH   1   3
ATOM      3  C   UNL     1     -13.815   4.787 -17.051  0.00  0.00    +0.041 A 
ATOM      4  C   UNL     1     -13.714   6.186 -16.832  0.00  0.00    +0.014 A 
ATOM      5  C   UNL     1     -14.479   7.137 -17.521  0.00  0.00    +0.001 A 
ATOM      6  C   UNL     1     -15.416   6.725 -18.457  0.00  0.00    +0.000 A 
ATOM      7  C   UNL     1     -15.597   5.368 -18.685  0.00  0.00    +0.001 A 
ATOM      8  C   UNL     1     -14.822   4.433 -17.989  0.00  0.00    +0.014 A 
ENDBRANCH   1   3
BRANCH   1   9
ATOM      9  C   UNL     1     -14.207   3.443 -15.457  0.00  0.00    +0.041 A 
ATOM     10  C   UNL     1     -14.609   4.225 -14.342  0.00  0.00    +0.014 A 
ATOM     11  C   UNL     1     -15.747   3.951 -13.573  0.00  0.00    +0.001 A 
ATOM     12  C   UNL     1     -16.561   2.877 -13.901  0.00  0.00    +0.000 A 
ATOM     13  C   UNL     1     -16.244   2.094 -15.002  0.00  0.00    +0.001 A 
ATOM     14  C   UNL     1     -15.104   2.385 -15.762  0.00  0.00    +0.014 A 
ENDBRANCH   1   9
BRANCH   1  15
ATOM     15  O   UNL     1     -12.201   2.760 -15.540  0.00  0.00    -0.318 OA
BRANCH  15  20
ATOM     16  C   UNL     1     -10.985  -0.276 -17.812  0.00  0.00    +0.003 C 
ATOM     17  C   UNL     1      -9.724  -0.717 -16.963  0.00  0.00    +0.000 C 
ATOM     18  C   UNL     1      -9.912  -0.482 -15.493  0.00  0.00    +0.003 C 
ATOM     19  C   UNL     1     -10.206   1.155 -15.647  0.00  0.00    +0.032 C 
ATOM     20  C   UNL     1     -11.382   1.636 -16.161  0.00  0.00    +0.127 C 
ATOM     21  C   UNL     1     -12.021   0.717 -17.158  0.00  0.00    +0.032 C 
ENDBRANCH  15  20
ENDBRANCH   1  15
TORSDOF 4
ENDMDL
MODEL 4
REMARK VINA RESULT:      -7.4      1.705      5.584
REMARK  Name = min_compound964.pdb
REMARK  4 active torsions:
REMARK  status: ('A' for Active; 'I' for Inactive)
REMARK    1  A    between atoms: _5  and  _7
REMARK    2  A    between atoms: _7  and  _9
REMARK    3  A    between atoms: _9  and  _10
REMARK    4  A    between atoms: _9  and  _16
REMARK                            x       y       z     vdW  Elec       q    Type
REMARK                         _______ _______ _______ _____ _____    ______ ____
ROOT
ATOM      1  P   UNL     1     -11.763   3.581 -16.826  0.00  0.00    +0.263 P 
ATOM      2  O   UNL     1     -10.477   3.876 -17.541  0.00  0.00    -0.281 OA
ENDROOT
BRANCH   1   3
ATOM      3  C   UNL     1     -11.330   2.158 -16.633  0.00  0.00    +0.041 A 
ATOM      4  C   UNL     1     -10.667   1.695 -15.466  0.00  0.00    +0.014 A 
ATOM      5  C   UNL     1     -10.243   0.371 -15.289  0.00  0.00    +0.001 A 
ATOM      6  C   UNL     1     -10.440  -0.560 -16.296  0.00  0.00    +0.000 A 
ATOM      7  C   UNL     1     -11.042  -0.161 -17.482  0.00  0.00    +0.001 A 
ATOM      8  C   UNL     1     -11.461   1.165 -17.641  0.00  0.00    +0.014 A 
ENDBRANCH   1   3
BRANCH   1   9
ATOM      9  C   UNL     1     -13.048   3.287 -16.112  0.00  0.00    +0.041 A 
ATOM     10  C   UNL     1     -13.519   4.060 -15.018  0.00  0.00    +0.014 A 
ATOM     11  C   UNL     1     -14.734   3.820 -14.366  0.00  0.00    +0.001 A 
ATOM     12  C   UNL     1     -15.560   2.792 -14.797  0.00  0.00    +0.000 A 
ATOM     13  C   UNL     1     -15.175   2.022 -15.885  0.00  0.00    +0.001 A 
ATOM     14  C   UNL     1     -13.957   2.278 -16.528  0.00  0.00    +0.014 A 
ENDBRANCH   1   9
BRANCH   1  15
ATOM     15  O   UNL     1     -12.196   5.004 -17.019  0.00  0.00    -0.318 OA
BRANCH  15  20
ATOM     16  C   UNL     1     -13.580   5.692 -20.689  0.00  0.00    +0.003 C 
ATOM     17  C   UNL     1     -12.786   7.027 -20.995  0.00  0.00    +0.000 C 
ATOM     18  C   UNL     1     -11.442   7.060 -20.329  0.00  0.00    +0.003 C 
ATOM     19  C   UNL     1     -12.043   6.855 -18.784  0.00  0.00    +0.032 C 
ATOM     20  C   UNL     1     -12.542   5.654 -18.351  0.00  0.00    +0.127 C 
ATOM     21  C   UNL     1     -13.140   4.824 -19.447  0.00  0.00    +0.032 C 
ENDBRANCH  15  20
ENDBRANCH   1  15
TORSDOF 4
ENDMDL
MODEL 5
REMARK VINA RESULT:      -7.3      1.612      4.901
REMARK  Name = min_compound964.pdb
REMARK  4 active torsions:
REMARK  status: ('A' for Active; 'I' for Inactive)
REMARK    1  A    between atoms: _5  and  _7
REMARK    2  A    between atoms: _7  and  _9
REMARK    3  A    between atoms: _9  and  _10
REMARK    4  A    between atoms: _9  and  _16
REMARK                            x       y       z     vdW  Elec       q    Type
REMARK                         _______ _______ _______ _____ _____    ______ ____
ROOT
ATOM      1  P   UNL     1     -13.947   3.870 -17.309  0.00  0.00    +0.263 P 
ATOM      2  O   UNL     1     -15.209   4.668 -17.442  0.00  0.00    -0.281 OA
ENDROOT
BRANCH   1   3
ATOM      3  C   UNL     1     -13.209   4.903 -18.107  0.00  0.00    +0.041 A 
ATOM      4  C   UNL     1     -12.646   6.075 -17.537  0.00  0.00    +0.014 A 
ATOM      5  C   UNL     1     -11.972   7.053 -18.281  0.00  0.00    +0.001 A 
ATOM      6  C   UNL     1     -11.851   6.916 -19.656  0.00  0.00    +0.000 A 
ATOM      7  C   UNL     1     -12.419   5.815 -20.281  0.00  0.00    +0.001 A 
ATOM      8  C   UNL     1     -13.086   4.847 -19.522  0.00  0.00    +0.014 A 
ENDBRANCH   1   3
BRANCH   1   9
ATOM      9  C   UNL     1     -12.684   3.071 -17.175  0.00  0.00    +0.041 A 
ATOM     10  C   UNL     1     -11.732   3.299 -16.147  0.00  0.00    +0.014 A 
ATOM     11  C   UNL     1     -10.567   2.537 -15.988  0.00  0.00    +0.001 A 
ATOM     12  C   UNL     1     -10.307   1.482 -16.849  0.00  0.00    +0.000 A 
ATOM     13  C   UNL     1     -11.217   1.184 -17.854  0.00  0.00    +0.001 A 
ATOM     14  C   UNL     1     -12.378   1.954 -17.996  0.00  0.00    +0.014 A 
ENDBRANCH   1   9
BRANCH   1  15
ATOM     15  O   UNL     1     -14.684   2.836 -16.510  0.00  0.00    -0.318 OA
BRANCH  15  20
ATOM     16  C   UNL     1     -17.041   2.723 -13.302  0.00  0.00    +0.003 C 
ATOM     17  C   UNL     1     -16.356   3.879 -12.464  0.00  0.00    +0.000 C 
ATOM     18  C   UNL     1     -15.779   4.954 -13.337  0.00  0.00    +0.003 C 
ATOM     19  C   UNL     1     -14.781   3.923 -14.192  0.00  0.00    +0.032 C 
ATOM     20  C   UNL     1     -15.270   3.042 -15.120  0.00  0.00    +0.127 C 
ATOM     21  C   UNL     1     -16.665   2.576 -14.827  0.00  0.00    +0.032 C 
ENDBRANCH  15  20
ENDBRANCH   1  15
TORSDOF 4
ENDMDL
MODEL 6
REMARK VINA RESULT:      -7.1      1.321      3.709
REMARK  Name = min_compound964.pdb
REMARK  4 active torsions:
REMARK  status: ('A' for Active; 'I' for Inactive)
REMARK    1  A    between atoms: _5  and  _7
REMARK    2  A    between atoms: _7  and  _9
REMARK    3  A    between atoms: _9  and  _10
REMARK    4  A    between atoms: _9  and  _16
REMARK                            x       y       z     vdW  Elec       q    Type
REMARK                         _______ _______ _______ _____ _____    ______ ____
ROOT
ATOM      1  P   UNL     1     -13.529   3.295 -17.173  0.00  0.00    +0.263 P 
ATOM      2  O   UNL     1     -14.055   2.103 -16.429  0.00  0.00    -0.281 OA
ENDROOT
BRANCH   1   3
ATOM      3  C   UNL     1     -14.576   4.157 -16.534  0.00  0.00    +0.041 A 
ATOM      4  C   UNL     1     -14.638   4.405 -15.137  0.00  0.00    +0.014 A 
ATOM      5  C   UNL     1     -15.625   5.194 -14.532  0.00  0.00    +0.001 A 
ATOM      6  C   UNL     1     -16.628   5.760 -15.304  0.00  0.00    +0.000 A 
ATOM      7  C   UNL     1     -16.651   5.520 -16.670  0.00  0.00    +0.001 A 
ATOM      8  C   UNL     1     -15.656   4.731 -17.258  0.00  0.00    +0.014 A 
ENDBRANCH   1   3
BRANCH   1   9
ATOM      9  C   UNL     1     -13.002   4.486 -17.918  0.00  0.00    +0.041 A 
ATOM     10  C   UNL     1     -12.324   5.557 -17.279  0.00  0.00    +0.014 A 
ATOM     11  C   UNL     1     -11.794   6.657 -17.966  0.00  0.00    +0.001 A 
ATOM     12  C   UNL     1     -11.900   6.727 -19.347  0.00  0.00    +0.000 A 
ATOM     13  C   UNL     1     -12.519   5.693 -20.035  0.00  0.00    +0.001 A 
ATOM     14  C   UNL     1     -13.040   4.600 -19.332  0.00  0.00    +0.014 A 
ENDBRANCH   1   9
BRANCH   1  15
ATOM     15  O   UNL     1     -12.481   2.432 -17.813  0.00  0.00    -0.318 OA
BRANCH  15  20
ATOM     16  C   UNL     1      -9.995   0.586 -15.309  0.00  0.00    +0.003 C 
ATOM     17  C   UNL     1      -9.826  -0.773 -16.103  0.00  0.00    +0.000 C 
ATOM     18  C   UNL     1      -9.911  -0.584 -17.588  0.00  0.00    +0.003 C 
ATOM     19  C   UNL     1     -11.431   0.109 -17.557  0.00  0.00    +0.032 C 
ATOM     20  C   UNL     1     -11.638   1.384 -17.099  0.00  0.00    +0.127 C 
ATOM     21  C   UNL     1     -10.656   1.812 -16.051  0.00  0.00    +0.032 C 
ENDBRANCH  15  20
ENDBRANCH   1  15
TORSDOF 4
ENDMDL
MODEL 7
REMARK VINA RESULT:      -7.1     11.895     14.127
REMARK  Name = min_compound964.pdb
REMARK  4 active torsions:
REMARK  status: ('A' for Active; 'I' for Inactive)
REMARK    1  A    between atoms: _5  and  _7
REMARK    2  A    between atoms: _7  and  _9
REMARK    3  A    between atoms: _9  and  _10
REMARK    4  A    between atoms: _9  and  _16
REMARK                            x       y       z     vdW  Elec       q    Type
REMARK                         _______ _______ _______ _____ _____    ______ ____
ROOT
ATOM      1  P   UNL     1     -16.460  -0.758  -3.698  0.00  0.00    +0.263 P 
ATOM      2  O   UNL     1     -17.438  -1.895  -3.701  0.00  0.00    -0.281 OA
ENDROOT
BRANCH   1   3
ATOM      3  C   UNL     1     -16.714  -0.536  -5.160  0.00  0.00    +0.041 A 
ATOM      4  C   UNL     1     -17.979  -0.161  -5.685  0.00  0.00    +0.014 A 
ATOM      5  C   UNL     1     -18.226   0.029  -7.051  0.00  0.00    +0.001 A 
ATOM      6  C   UNL     1     -17.211  -0.176  -7.973  0.00  0.00    +0.000 A 
ATOM      7  C   UNL     1     -15.963  -0.589  -7.530  0.00  0.00    +0.001 A 
ATOM      8  C   UNL     1     -15.733  -0.771  -6.161  0.00  0.00    +0.014 A 
ENDBRANCH   1   3
BRANCH   1   9
ATOM      9  C   UNL     1     -15.482   0.379  -3.695  0.00  0.00    +0.041 A 
ATOM     10  C   UNL     1     -15.868   1.730  -3.899  0.00  0.00    +0.014 A 
ATOM     11  C   UNL     1     -14.972   2.806  -3.861  0.00  0.00    +0.001 A 
ATOM     12  C   UNL     1     -13.630   2.579  -3.593  0.00  0.00    +0.000 A 
ATOM     13  C   UNL     1     -13.195   1.285  -3.348  0.00  0.00    +0.001 A 
ATOM     14  C   UNL     1     -14.105   0.222  -3.386  0.00  0.00    +0.014 A 
ENDBRANCH   1   9
BRANCH   1  15
ATOM     15  O   UNL     1     -16.207  -0.980  -2.236  0.00  0.00    -0.318 OA
BRANCH  15  20
ATOM     16  C   UNL     1     -15.436  -3.943   0.309  0.00  0.00    +0.003 C 
ATOM     17  C   UNL     1     -14.321  -4.692  -0.529  0.00  0.00    +0.000 C 
ATOM     18  C   UNL     1     -13.503  -3.750  -1.363  0.00  0.00    +0.003 C 
ATOM     19  C   UNL     1     -14.809  -3.127  -2.197  0.00  0.00    +0.032 C 
ATOM     20  C   UNL     1     -15.706  -2.273  -1.609  0.00  0.00    +0.127 C 
ATOM     21  C   UNL     1     -15.861  -2.490  -0.134  0.00  0.00    +0.032 C 
ENDBRANCH  15  20
ENDBRANCH   1  15
TORSDOF 4
ENDMDL
MODEL 8
REMARK VINA RESULT:      -7.1      1.588      5.818
REMARK  Name = min_compound964.pdb
REMARK  4 active torsions:
REMARK  status: ('A' for Active; 'I' for Inactive)
REMARK    1  A    between atoms: _5  and  _7
REMARK    2  A    between atoms: _7  and  _9
REMARK    3  A    between atoms: _9  and  _10
REMARK    4  A    between atoms: _9  and  _16
REMARK                            x       y       z     vdW  Elec       q    Type
REMARK                         _______ _______ _______ _____ _____    ______ ____
ROOT
ATOM      1  P   UNL     1     -13.668   2.469 -16.573  0.00  0.00    +0.263 P 
ATOM      2  O   UNL     1     -14.223   1.298 -15.817  0.00  0.00    -0.281 OA
ENDROOT
BRANCH   1   3
ATOM      3  C   UNL     1     -12.352   1.760 -16.704  0.00  0.00    +0.041 A 
ATOM      4  C   UNL     1     -12.038   0.889 -17.781  0.00  0.00    +0.014 A 
ATOM      5  C   UNL     1     -10.818   0.210 -17.899  0.00  0.00    +0.001 A 
ATOM      6  C   UNL     1      -9.850   0.351 -16.916  0.00  0.00    +0.000 A 
ATOM      7  C   UNL     1     -10.112   1.151 -15.813  0.00  0.00    +0.001 A 
ATOM      8  C   UNL     1     -11.336   1.824 -15.714  0.00  0.00    +0.014 A 
ENDBRANCH   1   3
BRANCH   1   9
ATOM      9  C   UNL     1     -13.113   3.639 -17.330  0.00  0.00    +0.041 A 
ATOM     10  C   UNL     1     -12.205   4.568 -16.758  0.00  0.00    +0.014 A 
ATOM     11  C   UNL     1     -11.650   5.643 -17.463  0.00  0.00    +0.001 A 
ATOM     12  C   UNL     1     -11.965   5.830 -18.801  0.00  0.00    +0.000 A 
ATOM     13  C   UNL     1     -12.819   4.935 -19.430  0.00  0.00    +0.001 A 
ATOM     14  C   UNL     1     -13.362   3.863 -18.710  0.00  0.00    +0.014 A 
ENDBRANCH   1   9
BRANCH   1  15
ATOM     15  O   UNL     1     -14.984   3.177 -16.443  0.00  0.00    -0.318 OA
BRANCH  15  20
ATOM     16  C   UNL     1     -15.611   4.770 -12.847  0.00  0.00    +0.003 C 
ATOM     17  C   UNL     1     -17.006   4.092 -12.529  0.00  0.00    +0.000 C 
ATOM     18  C   UNL     1     -17.132   2.727 -13.136  0.00  0.00    +0.003 C 
ATOM     19  C   UNL     1     -16.863   3.242 -14.702  0.00  0.00    +0.032 C 
ATOM     20  C   UNL     1     -15.622   3.629 -15.137  0.00  0.00    +0.127 C 
ATOM     21  C   UNL     1     -14.763   4.211 -14.055  0.00  0.00    +0.032 C 
ENDBRANCH  15  20
ENDBRANCH   1  15
TORSDOF 4
ENDMDL
MODEL 9
REMARK VINA RESULT:      -7.1      0.695      1.264
REMARK  Name = min_compound964.pdb
REMARK  4 active torsions:
REMARK  status: ('A' for Active; 'I' for Inactive)
REMARK    1  A    between atoms: _5  and  _7
REMARK    2  A    between atoms: _7  and  _9
REMARK    3  A    between atoms: _9  and  _10
REMARK    4  A    between atoms: _9  and  _16
REMARK                            x       y       z     vdW  Elec       q    Type
REMARK                         _______ _______ _______ _____ _____    ______ ____
ROOT
ATOM      1  P   UNL     1     -14.160   3.348 -17.214  0.00  0.00    +0.263 P 
ATOM      2  O   UNL     1     -13.418   3.245 -18.513  0.00  0.00    -0.281 OA
ENDROOT
BRANCH   1   3
ATOM      3  C   UNL     1     -14.408   4.805 -17.471  0.00  0.00    +0.041 A 
ATOM      4  C   UNL     1     -13.446   5.818 -17.212  0.00  0.00    +0.014 A 
ATOM      5  C   UNL     1     -13.679   7.182 -17.433  0.00  0.00    +0.001 A 
ATOM      6  C   UNL     1     -14.911   7.607 -17.904  0.00  0.00    +0.000 A 
ATOM      7  C   UNL     1     -15.910   6.672 -18.134  0.00  0.00    +0.001 A 
ATOM      8  C   UNL     1     -15.660   5.313 -17.910  0.00  0.00    +0.014 A 
ENDBRANCH   1   3
BRANCH   1   9
ATOM      9  C   UNL     1     -14.902   3.452 -15.914  0.00  0.00    +0.041 A 
ATOM     10  C   UNL     1     -16.173   2.856 -15.701  0.00  0.00    +0.014 A 
ATOM     11  C   UNL     1     -16.860   2.912 -14.482  0.00  0.00    +0.001 A 
ATOM     12  C   UNL     1     -16.290   3.559 -13.396  0.00  0.00    +0.000 A 
ATOM     13  C   UNL     1     -15.033   4.131 -13.528  0.00  0.00    +0.001 A 
ATOM     14  C   UNL     1     -14.359   4.062 -14.753  0.00  0.00    +0.014 A 
ENDBRANCH   1   9
BRANCH   1  15
ATOM     15  O   UNL     1     -13.913   1.891 -16.956  0.00  0.00    -0.318 OA
BRANCH  15  20
ATOM     16  C   UNL     1     -10.298   1.284 -15.400  0.00  0.00    +0.003 C 
ATOM     17  C   UNL     1      -9.910  -0.022 -16.206  0.00  0.00    +0.000 C 
ATOM     18  C   UNL     1     -10.505  -0.044 -17.583  0.00  0.00    +0.003 C 
ATOM     19  C   UNL     1     -12.084   0.099 -17.058  0.00  0.00    +0.032 C 
ATOM     20  C   UNL     1     -12.579   1.275 -16.557  0.00  0.00    +0.127 C 
ATOM     21  C   UNL     1     -11.543   2.124 -15.885  0.00  0.00    +0.032 C 
ENDBRANCH  15  20
ENDBRANCH   1  15
TORSDOF 4
ENDMDL
