MODEL 1
REMARK VINA RESULT:      -6.7      0.000      0.000
REMARK  Name = min_compound94.pdb
REMARK  4 active torsions:
REMARK  status: ('A' for Active; 'I' for Inactive)
REMARK    1  A    between atoms: _2  and  _10
REMARK    2  A    between atoms: _2  and  _11
REMARK    3  A    between atoms: _7  and  _13
REMARK    4  A    between atoms: _9  and  _12
REMARK                            x       y       z     vdW  Elec       q    Type
REMARK                         _______ _______ _______ _____ _____    ______ ____
ROOT
ATOM      1  N   UNL     1     -12.659   3.511 -15.956  0.00  0.00    -0.286 NA
ATOM      2  C   UNL     1     -13.786   2.692 -16.414  0.00  0.00    +0.056 C 
ATOM      3  C   UNL     1     -14.983   3.043 -15.518  0.00  0.00    +0.036 C 
ATOM      4  C   UNL     1     -14.122   3.079 -17.860  0.00  0.00    +0.036 C 
ATOM      5  C   UNL     1     -13.460   1.201 -16.251  0.00  0.00    +0.034 C 
ATOM      6  C   UNL     1     -12.223   0.816 -17.052  0.00  0.00    +0.002 C 
ATOM      7  C   UNL     1     -11.081   1.835 -16.908  0.00  0.00    +0.064 C 
ATOM      8  C   UNL     1      -9.912   1.053 -16.296  0.00  0.00    +0.123 C 
ATOM      9  C   UNL     1     -10.139  -0.370 -16.794  0.00  0.00    +0.032 C 
ATOM     10  C   UNL     1     -11.644  -0.545 -16.645  0.00  0.00    +0.007 C 
ATOM     11  C   UNL     1     -11.447   3.107 -16.155  0.00  0.00    +0.017 C 
ATOM     12  C   UNL     1     -10.307   3.996 -15.755  0.00  0.00    +0.060 C 
ENDROOT
BRANCH   8  13
ATOM     13  O   UNL     1      -9.969   1.069 -14.875  0.00  0.00    -0.391 OA
ATOM     14  H   UNL     1      -9.357   1.757 -14.559  0.00  0.00    +0.210 HD
ENDBRANCH   8  13
TORSDOF 1
ENDMDL
MODEL 2
REMARK VINA RESULT:      -6.5      2.388      4.200
REMARK  Name = min_compound94.pdb
REMARK  4 active torsions:
REMARK  status: ('A' for Active; 'I' for Inactive)
REMARK    1  A    between atoms: _2  and  _10
REMARK    2  A    between atoms: _2  and  _11
REMARK    3  A    between atoms: _7  and  _13
REMARK    4  A    between atoms: _9  and  _12
REMARK                            x       y       z     vdW  Elec       q    Type
REMARK                         _______ _______ _______ _____ _____    ______ ____
ROOT
ATOM      1  N   UNL     1     -11.738   0.455 -17.634  0.00  0.00    -0.286 NA
ATOM      2  C   UNL     1     -10.661   0.193 -16.674  0.00  0.00    +0.056 C 
ATOM      3  C   UNL     1     -11.065  -1.062 -15.886  0.00  0.00    +0.036 C 
ATOM      4  C   UNL     1      -9.371  -0.106 -17.450  0.00  0.00    +0.036 C 
ATOM      5  C   UNL     1     -10.517   1.370 -15.700  0.00  0.00    +0.034 C 
ATOM      6  C   UNL     1     -10.203   2.663 -16.441  0.00  0.00    +0.002 C 
ATOM      7  C   UNL     1     -11.069   2.854 -17.698  0.00  0.00    +0.064 C 
ATOM      8  C   UNL     1     -11.850   4.152 -17.460  0.00  0.00    +0.123 C 
ATOM      9  C   UNL     1     -10.929   4.961 -16.555  0.00  0.00    +0.032 C 
ATOM     10  C   UNL     1     -10.411   3.914 -15.578  0.00  0.00    +0.007 C 
ATOM     11  C   UNL     1     -11.935   1.657 -18.067  0.00  0.00    +0.017 C 
ATOM     12  C   UNL     1     -12.986   1.894 -19.111  0.00  0.00    +0.060 C 
ENDROOT
BRANCH   8  13
ATOM     13  O   UNL     1     -13.074   3.899 -16.781  0.00  0.00    -0.391 OA
ATOM     14  H   UNL     1     -13.548   4.745 -16.694  0.00  0.00    +0.210 HD
ENDBRANCH   8  13
TORSDOF 1
ENDMDL
MODEL 3
REMARK VINA RESULT:      -5.7      1.920      3.916
REMARK  Name = min_compound94.pdb
REMARK  4 active torsions:
REMARK  status: ('A' for Active; 'I' for Inactive)
REMARK    1  A    between atoms: _2  and  _10
REMARK    2  A    between atoms: _2  and  _11
REMARK    3  A    between atoms: _7  and  _13
REMARK    4  A    between atoms: _9  and  _12
REMARK                            x       y       z     vdW  Elec       q    Type
REMARK                         _______ _______ _______ _____ _____    ______ ____
ROOT
ATOM      1  N   UNL     1      -9.929   2.188 -16.647  0.00  0.00    -0.286 NA
ATOM      2  C   UNL     1     -10.479   0.829 -16.614  0.00  0.00    +0.056 C 
ATOM      3  C   UNL     1      -9.704   0.011 -17.657  0.00  0.00    +0.036 C 
ATOM      4  C   UNL     1     -10.223   0.227 -15.226  0.00  0.00    +0.036 C 
ATOM      5  C   UNL     1     -11.965   0.848 -16.996  0.00  0.00    +0.034 C 
ATOM      6  C   UNL     1     -12.769   1.721 -16.042  0.00  0.00    +0.002 C 
ATOM      7  C   UNL     1     -12.076   3.058 -15.733  0.00  0.00    +0.064 C 
ATOM      8  C   UNL     1     -13.045   4.141 -16.222  0.00  0.00    +0.123 C 
ATOM      9  C   UNL     1     -14.413   3.486 -16.078  0.00  0.00    +0.032 C 
ATOM     10  C   UNL     1     -14.163   2.069 -16.578  0.00  0.00    +0.007 C 
ATOM     11  C   UNL     1     -10.660   3.188 -16.278  0.00  0.00    +0.017 C 
ATOM     12  C   UNL     1     -10.055   4.560 -16.239  0.00  0.00    +0.060 C 
ENDROOT
BRANCH   8  13
ATOM     13  O   UNL     1     -12.816   4.457 -17.591  0.00  0.00    -0.391 OA
ATOM     14  H   UNL     1     -12.277   5.267 -17.625  0.00  0.00    +0.210 HD
ENDBRANCH   8  13
TORSDOF 1
ENDMDL
MODEL 4
REMARK VINA RESULT:      -5.7      1.728      2.889
REMARK  Name = min_compound94.pdb
REMARK  4 active torsions:
REMARK  status: ('A' for Active; 'I' for Inactive)
REMARK    1  A    between atoms: _2  and  _10
REMARK    2  A    between atoms: _2  and  _11
REMARK    3  A    between atoms: _7  and  _13
REMARK    4  A    between atoms: _9  and  _12
REMARK                            x       y       z     vdW  Elec       q    Type
REMARK                         _______ _______ _______ _____ _____    ______ ____
ROOT
ATOM      1  N   UNL     1     -12.094   3.380 -17.765  0.00  0.00    -0.286 NA
ATOM      2  C   UNL     1     -11.637   3.913 -16.478  0.00  0.00    +0.056 C 
ATOM      3  C   UNL     1     -10.980   5.271 -16.767  0.00  0.00    +0.036 C 
ATOM      4  C   UNL     1     -12.857   4.138 -15.575  0.00  0.00    +0.036 C 
ATOM      5  C   UNL     1     -10.593   2.976 -15.855  0.00  0.00    +0.034 C 
ATOM      6  C   UNL     1     -11.168   1.584 -15.628  0.00  0.00    +0.002 C 
ATOM      7  C   UNL     1     -11.986   1.076 -16.827  0.00  0.00    +0.064 C 
ATOM      8  C   UNL     1     -11.273  -0.199 -17.295  0.00  0.00    +0.123 C 
ATOM      9  C   UNL     1     -10.630  -0.734 -16.021  0.00  0.00    +0.032 C 
ATOM     10  C   UNL     1     -10.090   0.526 -15.359  0.00  0.00    +0.007 C 
ATOM     11  C   UNL     1     -12.221   2.104 -17.925  0.00  0.00    +0.017 C 
ATOM     12  C   UNL     1     -12.770   1.581 -19.220  0.00  0.00    +0.060 C 
ENDROOT
BRANCH   8  13
ATOM     13  O   UNL     1     -10.257   0.099 -18.246  0.00  0.00    -0.391 OA
ATOM     14  H   UNL     1      -9.433   0.273 -17.757  0.00  0.00    +0.210 HD
ENDBRANCH   8  13
TORSDOF 1
ENDMDL
MODEL 5
REMARK VINA RESULT:      -5.4      2.427      3.727
REMARK  Name = min_compound94.pdb
REMARK  4 active torsions:
REMARK  status: ('A' for Active; 'I' for Inactive)
REMARK    1  A    between atoms: _2  and  _10
REMARK    2  A    between atoms: _2  and  _11
REMARK    3  A    between atoms: _7  and  _13
REMARK    4  A    between atoms: _9  and  _12
REMARK                            x       y       z     vdW  Elec       q    Type
REMARK                         _______ _______ _______ _____ _____    ______ ____
ROOT
ATOM      1  N   UNL     1     -12.851   4.599 -18.939  0.00  0.00    -0.286 NA
ATOM      2  C   UNL     1     -12.426   5.720 -18.095  0.00  0.00    +0.056 C 
ATOM      3  C   UNL     1     -11.905   6.814 -19.039  0.00  0.00    +0.036 C 
ATOM      4  C   UNL     1     -13.649   6.261 -17.342  0.00  0.00    +0.036 C 
ATOM      5  C   UNL     1     -11.290   5.283 -17.161  0.00  0.00    +0.034 C 
ATOM      6  C   UNL     1     -11.728   4.136 -16.260  0.00  0.00    +0.002 C 
ATOM      7  C   UNL     1     -12.512   3.051 -17.017  0.00  0.00    +0.064 C 
ATOM      8  C   UNL     1     -11.689   1.767 -16.857  0.00  0.00    +0.123 C 
ATOM      9  C   UNL     1     -10.980   1.965 -15.522  0.00  0.00    +0.032 C 
ATOM     10  C   UNL     1     -10.551   3.425 -15.579  0.00  0.00    +0.007 C 
ATOM     11  C   UNL     1     -12.859   3.399 -18.458  0.00  0.00    +0.017 C 
ATOM     12  C   UNL     1     -13.375   2.276 -19.308  0.00  0.00    +0.060 C 
ENDROOT
BRANCH   8  13
ATOM     13  O   UNL     1     -10.719   1.644 -17.891  0.00  0.00    -0.391 OA
ATOM     14  H   UNL     1     -10.124   2.412 -17.836  0.00  0.00    +0.210 HD
ENDBRANCH   8  13
TORSDOF 1
ENDMDL
MODEL 6
REMARK VINA RESULT:      -5.4      2.403      4.470
REMARK  Name = min_compound94.pdb
REMARK  4 active torsions:
REMARK  status: ('A' for Active; 'I' for Inactive)
REMARK    1  A    between atoms: _2  and  _10
REMARK    2  A    between atoms: _2  and  _11
REMARK    3  A    between atoms: _7  and  _13
REMARK    4  A    between atoms: _9  and  _12
REMARK                            x       y       z     vdW  Elec       q    Type
REMARK                         _______ _______ _______ _____ _____    ______ ____
ROOT
ATOM      1  N   UNL     1     -12.125   1.098 -18.417  0.00  0.00    -0.286 NA
ATOM      2  C   UNL     1     -11.352   1.012 -17.174  0.00  0.00    +0.056 C 
ATOM      3  C   UNL     1     -11.213  -0.480 -16.839  0.00  0.00    +0.036 C 
ATOM      4  C   UNL     1      -9.953   1.594 -17.421  0.00  0.00    +0.036 C 
ATOM      5  C   UNL     1     -12.101   1.713 -16.032  0.00  0.00    +0.034 C 
ATOM      6  C   UNL     1     -12.344   3.182 -16.352  0.00  0.00    +0.002 C 
ATOM      7  C   UNL     1     -12.833   3.403 -17.793  0.00  0.00    +0.064 C 
ATOM      8  C   UNL     1     -14.212   4.060 -17.658  0.00  0.00    +0.123 C 
ATOM      9  C   UNL     1     -14.118   4.816 -16.339  0.00  0.00    +0.032 C 
ATOM     10  C   UNL     1     -13.389   3.830 -15.435  0.00  0.00    +0.007 C 
ATOM     11  C   UNL     1     -12.812   2.162 -18.676  0.00  0.00    +0.017 C 
ATOM     12  C   UNL     1     -13.529   2.267 -19.989  0.00  0.00    +0.060 C 
ENDROOT
BRANCH   8  13
ATOM     13  O   UNL     1     -15.242   3.082 -17.568  0.00  0.00    -0.391 OA
ATOM     14  H   UNL     1     -15.999   3.395 -18.094  0.00  0.00    +0.210 HD
ENDBRANCH   8  13
TORSDOF 1
ENDMDL
MODEL 7
REMARK VINA RESULT:      -5.3     11.050     12.401
REMARK  Name = min_compound94.pdb
REMARK  4 active torsions:
REMARK  status: ('A' for Active; 'I' for Inactive)
REMARK    1  A    between atoms: _2  and  _10
REMARK    2  A    between atoms: _2  and  _11
REMARK    3  A    between atoms: _7  and  _13
REMARK    4  A    between atoms: _9  and  _12
REMARK                            x       y       z     vdW  Elec       q    Type
REMARK                         _______ _______ _______ _____ _____    ______ ____
ROOT
ATOM      1  N   UNL     1     -15.770   1.737  -3.668  0.00  0.00    -0.286 NA
ATOM      2  C   UNL     1     -14.396   1.337  -3.989  0.00  0.00    +0.056 C 
ATOM      3  C   UNL     1     -13.496   2.535  -3.650  0.00  0.00    +0.036 C 
ATOM      4  C   UNL     1     -14.004   0.156  -3.091  0.00  0.00    +0.036 C 
ATOM      5  C   UNL     1     -14.268   1.024  -5.486  0.00  0.00    +0.034 C 
ATOM      6  C   UNL     1     -15.209  -0.102  -5.895  0.00  0.00    +0.002 C 
ATOM      7  C   UNL     1     -16.617   0.053  -5.297  0.00  0.00    +0.064 C 
ATOM      8  C   UNL     1     -17.561   0.163  -6.501  0.00  0.00    +0.123 C 
ATOM      9  C   UNL     1     -16.845  -0.632  -7.587  0.00  0.00    +0.032 C 
ATOM     10  C   UNL     1     -15.393  -0.207  -7.414  0.00  0.00    +0.007 C 
ATOM     11  C   UNL     1     -16.762   1.177  -4.280  0.00  0.00    +0.017 C 
ATOM     12  C   UNL     1     -18.163   1.537  -3.881  0.00  0.00    +0.060 C 
ENDROOT
BRANCH   8  13
ATOM     13  O   UNL     1     -17.703   1.514  -6.922  0.00  0.00    -0.391 OA
ATOM     14  H   UNL     1     -17.882   2.056  -6.134  0.00  0.00    +0.210 HD
ENDBRANCH   8  13
TORSDOF 1
ENDMDL
MODEL 8
REMARK VINA RESULT:      -5.2     10.919     12.231
REMARK  Name = min_compound94.pdb
REMARK  4 active torsions:
REMARK  status: ('A' for Active; 'I' for Inactive)
REMARK    1  A    between atoms: _2  and  _10
REMARK    2  A    between atoms: _2  and  _11
REMARK    3  A    between atoms: _7  and  _13
REMARK    4  A    between atoms: _9  and  _12
REMARK                            x       y       z     vdW  Elec       q    Type
REMARK                         _______ _______ _______ _____ _____    ______ ____
ROOT
ATOM      1  N   UNL     1     -13.969   1.334  -5.360  0.00  0.00    -0.286 NA
ATOM      2  C   UNL     1     -14.379   1.422  -3.955  0.00  0.00    +0.056 C 
ATOM      3  C   UNL     1     -13.117   1.198  -3.109  0.00  0.00    +0.036 C 
ATOM      4  C   UNL     1     -14.910   2.835  -3.683  0.00  0.00    +0.036 C 
ATOM      5  C   UNL     1     -15.400   0.323  -3.629  0.00  0.00    +0.034 C 
ATOM      6  C   UNL     1     -16.640   0.446  -4.506  0.00  0.00    +0.002 C 
ATOM      7  C   UNL     1     -16.300   0.716  -5.981  0.00  0.00    +0.064 C 
ATOM      8  C   UNL     1     -16.883  -0.471  -6.757  0.00  0.00    +0.123 C 
ATOM      9  C   UNL     1     -18.067  -0.907  -5.903  0.00  0.00    +0.032 C 
ATOM     10  C   UNL     1     -17.515  -0.814  -4.487  0.00  0.00    +0.007 C 
ATOM     11  C   UNL     1     -14.829   0.989  -6.261  0.00  0.00    +0.017 C 
ATOM     12  C   UNL     1     -14.414   0.986  -7.703  0.00  0.00    +0.060 C 
ENDROOT
BRANCH   8  13
ATOM     13  O   UNL     1     -15.947  -1.539  -6.845  0.00  0.00    -0.391 OA
ATOM     14  H   UNL     1     -15.661  -1.760  -5.941  0.00  0.00    +0.210 HD
ENDBRANCH   8  13
TORSDOF 1
ENDMDL
MODEL 9
REMARK VINA RESULT:      -5.2     10.682     11.913
REMARK  Name = min_compound94.pdb
REMARK  4 active torsions:
REMARK  status: ('A' for Active; 'I' for Inactive)
REMARK    1  A    between atoms: _2  and  _10
REMARK    2  A    between atoms: _2  and  _11
REMARK    3  A    between atoms: _7  and  _13
REMARK    4  A    between atoms: _9  and  _12
REMARK                            x       y       z     vdW  Elec       q    Type
REMARK                         _______ _______ _______ _____ _____    ______ ____
ROOT
ATOM      1  N   UNL     1     -17.333   0.193  -6.366  0.00  0.00    -0.286 NA
ATOM      2  C   UNL     1     -16.299   0.121  -7.404  0.00  0.00    +0.056 C 
ATOM      3  C   UNL     1     -16.664  -1.063  -8.312  0.00  0.00    +0.036 C 
ATOM      4  C   UNL     1     -16.342   1.411  -8.234  0.00  0.00    +0.036 C 
ATOM      5  C   UNL     1     -14.926  -0.140  -6.770  0.00  0.00    +0.034 C 
ATOM      6  C   UNL     1     -14.553   0.963  -5.789  0.00  0.00    +0.002 C 
ATOM      7  C   UNL     1     -15.720   1.362  -4.870  0.00  0.00    +0.064 C 
ATOM      8  C   UNL     1     -15.234   1.070  -3.445  0.00  0.00    +0.123 C 
ATOM      9  C   UNL     1     -13.723   1.248  -3.542  0.00  0.00    +0.032 C 
ATOM     10  C   UNL     1     -13.388   0.578  -4.868  0.00  0.00    +0.007 C 
ATOM     11  C   UNL     1     -17.058   0.725  -5.220  0.00  0.00    +0.017 C 
ATOM     12  C   UNL     1     -18.150   0.867  -4.201  0.00  0.00    +0.060 C 
ENDROOT
BRANCH   8  13
ATOM     13  O   UNL     1     -15.527  -0.269  -3.065  0.00  0.00    -0.391 OA
ATOM     14  H   UNL     1     -16.063  -0.670  -3.772  0.00  0.00    +0.210 HD
ENDBRANCH   8  13
TORSDOF 1
ENDMDL
