MODEL 1
REMARK VINA RESULT:      -7.3      0.000      0.000
REMARK  Name = min_compound967.pdb
REMARK  3 active torsions:
REMARK  status: ('A' for Active; 'I' for Inactive)
REMARK    1  A    between atoms: _1  and  _2
REMARK    2  A    between atoms: _1  and  _17
REMARK    3  A    between atoms: _8  and  _18
REMARK                            x       y       z     vdW  Elec       q    Type
REMARK                         _______ _______ _______ _____ _____    ______ ____
ROOT
ATOM      1  N   UNL     1     -12.452   3.472 -15.678  0.00  0.00    -0.293 N 
ATOM      2  H   UNL     1     -12.261   3.488 -14.686  0.00  0.00    +0.151 HD
ATOM      3  C   UNL     1     -13.758   3.435 -16.116  0.00  0.00    +0.245 C 
ATOM      4  O   UNL     1     -14.134   3.468 -17.282  0.00  0.00    -0.270 OA
ENDROOT
BRANCH   3   5
ATOM      5  C   UNL     1     -14.774   3.370 -15.040  0.00  0.00    +0.037 A 
ATOM      6  C   UNL     1     -15.869   2.504 -15.138  0.00  0.00    +0.014 A 
ATOM      7  C   UNL     1     -16.831   2.488 -14.124  0.00  0.00    +0.021 A 
ATOM      8  C   UNL     1     -16.690   3.328 -13.019  0.00  0.00    +0.041 A 
ATOM      9  C   UNL     1     -15.601   4.195 -12.921  0.00  0.00    +0.021 A 
ATOM     10 CL   UNL     1     -17.875   3.304 -11.774  0.00  0.00    -0.084 Cl
ATOM     11  C   UNL     1     -14.645   4.224 -13.939  0.00  0.00    +0.014 A 
ENDBRANCH   3   5
BRANCH   1  12
ATOM     12  C   UNL     1     -11.294   3.481 -16.524  0.00  0.00    +0.089 C 
ATOM     13  C   UNL     1     -11.033   4.581 -17.526  0.00  0.00    +0.045 C 
ATOM     14  C   UNL     1     -10.312   4.604 -16.216  0.00  0.00    +0.045 C 
BRANCH  12  15
ATOM     15  N   UNL     1     -10.760   2.098 -16.694  0.00  0.00    -0.278 NA
ATOM     16  C   UNL     1     -10.673   1.352 -15.413  0.00  0.00    +0.114 C 
ATOM     17  C   UNL     1     -10.011  -0.022 -15.610  0.00  0.00    +0.175 C 
ATOM     18  O   UNL     1     -10.730  -0.820 -16.553  0.00  0.00    -0.377 OA
ATOM     19  C   UNL     1     -10.809  -0.138 -17.808  0.00  0.00    +0.175 C 
ATOM     20  C   UNL     1     -11.485   1.233 -17.655  0.00  0.00    +0.114 C 
ENDBRANCH  12  15
ENDBRANCH   1  12
TORSDOF 3
ENDMDL
MODEL 2
REMARK VINA RESULT:      -6.4      3.941      5.913
REMARK  Name = min_compound967.pdb
REMARK  3 active torsions:
REMARK  status: ('A' for Active; 'I' for Inactive)
REMARK    1  A    between atoms: _1  and  _2
REMARK    2  A    between atoms: _1  and  _17
REMARK    3  A    between atoms: _8  and  _18
REMARK                            x       y       z     vdW  Elec       q    Type
REMARK                         _______ _______ _______ _____ _____    ______ ____
ROOT
ATOM      1  N   UNL     1     -12.255   4.656 -18.122  0.00  0.00    -0.293 N 
ATOM      2  H   UNL     1     -11.362   4.430 -18.537  0.00  0.00    +0.151 HD
ATOM      3  C   UNL     1     -12.791   3.818 -17.167  0.00  0.00    +0.245 C 
ATOM      4  O   UNL     1     -13.831   3.998 -16.547  0.00  0.00    -0.270 OA
ENDROOT
BRANCH   3   5
ATOM      5  C   UNL     1     -11.988   2.607 -16.882  0.00  0.00    +0.037 A 
ATOM      6  C   UNL     1     -12.117   1.458 -17.671  0.00  0.00    +0.014 A 
ATOM      7  C   UNL     1     -11.372   0.318 -17.357  0.00  0.00    +0.021 A 
ATOM      8  C   UNL     1     -10.501   0.334 -16.266  0.00  0.00    +0.041 A 
ATOM      9  C   UNL     1     -10.374   1.477 -15.476  0.00  0.00    +0.021 A 
ATOM     10 CL   UNL     1      -9.587  -1.072 -15.886  0.00  0.00    -0.084 Cl
ATOM     11  C   UNL     1     -11.127   2.614 -15.778  0.00  0.00    +0.014 A 
ENDBRANCH   3   5
BRANCH   1  12
ATOM     12  C   UNL     1     -12.869   5.857 -18.610  0.00  0.00    +0.089 C 
ATOM     13  C   UNL     1     -13.081   7.070 -17.735  0.00  0.00    +0.045 C 
ATOM     14  C   UNL     1     -11.925   7.049 -18.683  0.00  0.00    +0.045 C 
BRANCH  12  15
ATOM     15  N   UNL     1     -13.731   5.561 -19.792  0.00  0.00    -0.278 NA
ATOM     16  C   UNL     1     -13.336   4.315 -20.497  0.00  0.00    +0.114 C 
ATOM     17  C   UNL     1     -14.168   4.106 -21.773  0.00  0.00    +0.175 C 
ATOM     18  O   UNL     1     -15.566   4.038 -21.482  0.00  0.00    -0.377 OA
ATOM     19  C   UNL     1     -15.985   5.238 -20.823  0.00  0.00    +0.175 C 
ATOM     20  C   UNL     1     -15.188   5.470 -19.530  0.00  0.00    +0.114 C 
ENDBRANCH  12  15
ENDBRANCH   1  12
TORSDOF 3
ENDMDL
MODEL 3
REMARK VINA RESULT:      -6.4      4.115      6.264
REMARK  Name = min_compound967.pdb
REMARK  3 active torsions:
REMARK  status: ('A' for Active; 'I' for Inactive)
REMARK    1  A    between atoms: _1  and  _2
REMARK    2  A    between atoms: _1  and  _17
REMARK    3  A    between atoms: _8  and  _18
REMARK                            x       y       z     vdW  Elec       q    Type
REMARK                         _______ _______ _______ _____ _____    ______ ____
ROOT
ATOM      1  N   UNL     1     -12.301   4.877 -18.732  0.00  0.00    -0.293 N 
ATOM      2  H   UNL     1     -12.662   4.098 -19.266  0.00  0.00    +0.151 HD
ATOM      3  C   UNL     1     -11.569   4.637 -17.590  0.00  0.00    +0.245 C 
ATOM      4  O   UNL     1     -11.029   5.479 -16.884  0.00  0.00    -0.270 OA
ENDROOT
BRANCH   3   5
ATOM      5  C   UNL     1     -11.428   3.207 -17.231  0.00  0.00    +0.037 A 
ATOM      6  C   UNL     1     -12.115   2.217 -17.944  0.00  0.00    +0.014 A 
ATOM      7  C   UNL     1     -11.991   0.878 -17.561  0.00  0.00    +0.021 A 
ATOM      8  C   UNL     1     -11.180   0.537 -16.478  0.00  0.00    +0.041 A 
ATOM      9  C   UNL     1     -10.498   1.522 -15.764  0.00  0.00    +0.021 A 
ATOM     10 CL   UNL     1     -11.031  -1.112 -16.013  0.00  0.00    -0.084 Cl
ATOM     11  C   UNL     1     -10.630   2.862 -16.135  0.00  0.00    +0.014 A 
ENDBRANCH   3   5
BRANCH   1  12
ATOM     12  C   UNL     1     -12.623   6.174 -19.253  0.00  0.00    +0.089 C 
ATOM     13  C   UNL     1     -11.565   7.132 -19.750  0.00  0.00    +0.045 C 
ATOM     14  C   UNL     1     -12.345   6.330 -20.743  0.00  0.00    +0.045 C 
BRANCH  12  15
ATOM     15  N   UNL     1     -13.940   6.639 -18.725  0.00  0.00    -0.278 NA
ATOM     16  C   UNL     1     -14.815   5.519 -18.294  0.00  0.00    +0.114 C 
ATOM     17  C   UNL     1     -16.202   6.027 -17.867  0.00  0.00    +0.175 C 
ATOM     18  O   UNL     1     -16.110   6.969 -16.796  0.00  0.00    -0.377 OA
ATOM     19  C   UNL     1     -15.291   8.075 -17.190  0.00  0.00    +0.175 C 
ATOM     20  C   UNL     1     -13.887   7.608 -17.604  0.00  0.00    +0.114 C 
ENDBRANCH  12  15
ENDBRANCH   1  12
TORSDOF 3
ENDMDL
MODEL 4
REMARK VINA RESULT:      -6.1      3.931      5.944
REMARK  Name = min_compound967.pdb
REMARK  3 active torsions:
REMARK  status: ('A' for Active; 'I' for Inactive)
REMARK    1  A    between atoms: _1  and  _2
REMARK    2  A    between atoms: _1  and  _17
REMARK    3  A    between atoms: _8  and  _18
REMARK                            x       y       z     vdW  Elec       q    Type
REMARK                         _______ _______ _______ _____ _____    ______ ____
ROOT
ATOM      1  N   UNL     1     -13.184   3.724 -17.687  0.00  0.00    -0.293 N 
ATOM      2  H   UNL     1     -13.737   3.367 -18.455  0.00  0.00    +0.151 HD
ATOM      3  C   UNL     1     -12.393   4.836 -17.881  0.00  0.00    +0.245 C 
ATOM      4  O   UNL     1     -11.719   5.404 -17.030  0.00  0.00    -0.270 OA
ENDROOT
BRANCH   3   5
ATOM      5  C   UNL     1     -12.402   5.373 -19.261  0.00  0.00    +0.037 A 
ATOM      6  C   UNL     1     -11.682   6.529 -19.586  0.00  0.00    +0.014 A 
ATOM      7  C   UNL     1     -11.738   7.034 -20.888  0.00  0.00    +0.021 A 
ATOM      8  C   UNL     1     -12.502   6.380 -21.855  0.00  0.00    +0.041 A 
ATOM      9  C   UNL     1     -13.223   5.231 -21.533  0.00  0.00    +0.021 A 
ATOM     10 CL   UNL     1     -12.565   7.006 -23.456  0.00  0.00    -0.084 Cl
ATOM     11  C   UNL     1     -13.182   4.731 -20.230  0.00  0.00    +0.014 A 
ENDBRANCH   3   5
BRANCH   1  12
ATOM     12  C   UNL     1     -13.298   2.991 -16.460  0.00  0.00    +0.089 C 
ATOM     13  C   UNL     1     -13.869   3.604 -15.202  0.00  0.00    +0.045 C 
ATOM     14  C   UNL     1     -14.735   2.714 -16.035  0.00  0.00    +0.045 C 
BRANCH  12  15
ATOM     15  N   UNL     1     -12.320   1.865 -16.430  0.00  0.00    -0.278 NA
ATOM     16  C   UNL     1     -11.960   1.377 -17.786  0.00  0.00    +0.114 C 
ATOM     17  C   UNL     1     -11.044   0.144 -17.712  0.00  0.00    +0.175 C 
ATOM     18  O   UNL     1      -9.839   0.428 -16.997  0.00  0.00    -0.377 OA
ATOM     19  C   UNL     1     -10.152   0.877 -15.675  0.00  0.00    +0.175 C 
ATOM     20  C   UNL     1     -11.050   2.123 -15.708  0.00  0.00    +0.114 C 
ENDBRANCH  12  15
ENDBRANCH   1  12
TORSDOF 3
ENDMDL
MODEL 5
REMARK VINA RESULT:      -6.1      3.426      6.374
REMARK  Name = min_compound967.pdb
REMARK  3 active torsions:
REMARK  status: ('A' for Active; 'I' for Inactive)
REMARK    1  A    between atoms: _1  and  _2
REMARK    2  A    between atoms: _1  and  _17
REMARK    3  A    between atoms: _8  and  _18
REMARK                            x       y       z     vdW  Elec       q    Type
REMARK                         _______ _______ _______ _____ _____    ______ ____
ROOT
ATOM      1  N   UNL     1     -13.930   3.689 -15.017  0.00  0.00    -0.293 N 
ATOM      2  H   UNL     1     -13.007   3.931 -14.687  0.00  0.00    +0.151 HD
ATOM      3  C   UNL     1     -14.081   2.643 -15.902  0.00  0.00    +0.245 C 
ATOM      4  O   UNL     1     -15.141   2.208 -16.338  0.00  0.00    -0.270 OA
ENDROOT
BRANCH   3   5
ATOM      5  C   UNL     1     -12.817   1.998 -16.325  0.00  0.00    +0.037 A 
ATOM      6  C   UNL     1     -12.770   0.628 -16.609  0.00  0.00    +0.014 A 
ATOM      7  C   UNL     1     -11.555   0.039 -16.972  0.00  0.00    +0.021 A 
ATOM      8  C   UNL     1     -10.402   0.820 -17.055  0.00  0.00    +0.041 A 
ATOM      9  C   UNL     1     -10.445   2.184 -16.768  0.00  0.00    +0.021 A 
ATOM     10 CL   UNL     1      -8.910   0.089 -17.503  0.00  0.00    -0.084 Cl
ATOM     11  C   UNL     1     -11.654   2.774 -16.392  0.00  0.00    +0.014 A 
ENDBRANCH   3   5
BRANCH   1  12
ATOM     12  C   UNL     1     -14.995   4.503 -14.508  0.00  0.00    +0.089 C 
ATOM     13  C   UNL     1     -16.014   3.980 -13.522  0.00  0.00    +0.045 C 
ATOM     14  C   UNL     1     -14.879   4.815 -13.021  0.00  0.00    +0.045 C 
BRANCH  12  15
ATOM     15  N   UNL     1     -15.291   5.626 -15.447  0.00  0.00    -0.278 NA
ATOM     16  C   UNL     1     -14.235   5.811 -16.475  0.00  0.00    +0.114 C 
ATOM     17  C   UNL     1     -14.515   7.045 -17.348  0.00  0.00    +0.175 C 
ATOM     18  O   UNL     1     -15.779   6.944 -18.008  0.00  0.00    -0.377 OA
ATOM     19  C   UNL     1     -16.822   6.790 -17.042  0.00  0.00    +0.175 C 
ATOM     20  C   UNL     1     -16.587   5.552 -16.162  0.00  0.00    +0.114 C 
ENDBRANCH  12  15
ENDBRANCH   1  12
TORSDOF 3
ENDMDL
MODEL 6
REMARK VINA RESULT:      -6.0      6.427      9.159
REMARK  Name = min_compound967.pdb
REMARK  3 active torsions:
REMARK  status: ('A' for Active; 'I' for Inactive)
REMARK    1  A    between atoms: _1  and  _2
REMARK    2  A    between atoms: _1  and  _17
REMARK    3  A    between atoms: _8  and  _18
REMARK                            x       y       z     vdW  Elec       q    Type
REMARK                         _______ _______ _______ _____ _____    ______ ____
ROOT
ATOM      1  N   UNL     1     -17.338   2.007  -8.896  0.00  0.00    -0.293 N 
ATOM      2  H   UNL     1     -17.210   1.325  -9.631  0.00  0.00    +0.151 HD
ATOM      3  C   UNL     1     -17.069   3.335  -9.150  0.00  0.00    +0.245 C 
ATOM      4  O   UNL     1     -17.231   4.268  -8.374  0.00  0.00    -0.270 OA
ENDROOT
BRANCH   3   5
ATOM      5  C   UNL     1     -16.555   3.617 -10.510  0.00  0.00    +0.037 A 
ATOM      6  C   UNL     1     -15.468   4.478 -10.702  0.00  0.00    +0.014 A 
ATOM      7  C   UNL     1     -15.026   4.753 -11.999  0.00  0.00    +0.021 A 
ATOM      8  C   UNL     1     -15.665   4.164 -13.091  0.00  0.00    +0.041 A 
ATOM      9  C   UNL     1     -16.750   3.309 -12.902  0.00  0.00    +0.021 A 
ATOM     10 CL   UNL     1     -15.115   4.505 -14.685  0.00  0.00    -0.084 Cl
ATOM     11  C   UNL     1     -17.204   3.042 -11.608  0.00  0.00    +0.014 A 
ENDBRANCH   3   5
BRANCH   1  12
ATOM     12  C   UNL     1     -17.789   1.477  -7.642  0.00  0.00    +0.089 C 
ATOM     13  C   UNL     1     -19.151   1.798  -7.071  0.00  0.00    +0.045 C 
ATOM     14  C   UNL     1     -18.942   0.490  -7.766  0.00  0.00    +0.045 C 
BRANCH  12  15
ATOM     15  N   UNL     1     -16.626   1.105  -6.783  0.00  0.00    -0.278 NA
ATOM     16  C   UNL     1     -15.385   0.867  -7.563  0.00  0.00    +0.114 C 
ATOM     17  C   UNL     1     -14.243   0.374  -6.659  0.00  0.00    +0.175 C 
ATOM     18  O   UNL     1     -13.954   1.312  -5.620  0.00  0.00    -0.377 OA
ATOM     19  C   UNL     1     -15.126   1.544  -4.833  0.00  0.00    +0.175 C 
ATOM     20  C   UNL     1     -16.285   2.059  -5.700  0.00  0.00    +0.114 C 
ENDBRANCH  12  15
ENDBRANCH   1  12
TORSDOF 3
ENDMDL
MODEL 7
REMARK VINA RESULT:      -5.9      3.470      6.632
REMARK  Name = min_compound967.pdb
REMARK  3 active torsions:
REMARK  status: ('A' for Active; 'I' for Inactive)
REMARK    1  A    between atoms: _1  and  _2
REMARK    2  A    between atoms: _1  and  _17
REMARK    3  A    between atoms: _8  and  _18
REMARK                            x       y       z     vdW  Elec       q    Type
REMARK                         _______ _______ _______ _____ _____    ______ ____
ROOT
ATOM      1  N   UNL     1     -14.418   3.808 -16.447  0.00  0.00    -0.293 N 
ATOM      2  H   UNL     1     -14.780   2.909 -16.160  0.00  0.00    +0.151 HD
ATOM      3  C   UNL     1     -13.071   3.946 -16.708  0.00  0.00    +0.245 C 
ATOM      4  O   UNL     1     -12.511   4.956 -17.114  0.00  0.00    -0.270 OA
ENDROOT
BRANCH   3   5
ATOM      5  C   UNL     1     -12.266   2.724 -16.480  0.00  0.00    +0.037 A 
ATOM      6  C   UNL     1     -11.144   2.749 -15.643  0.00  0.00    +0.014 A 
ATOM      7  C   UNL     1     -10.382   1.589 -15.474  0.00  0.00    +0.021 A 
ATOM      8  C   UNL     1     -10.748   0.415 -16.134  0.00  0.00    +0.041 A 
ATOM      9  C   UNL     1     -11.863   0.389 -16.972  0.00  0.00    +0.021 A 
ATOM     10 CL   UNL     1      -9.807  -1.009 -15.921  0.00  0.00    -0.084 Cl
ATOM     11  C   UNL     1     -12.619   1.549 -17.154  0.00  0.00    +0.014 A 
ENDBRANCH   3   5
BRANCH   1  12
ATOM     12  C   UNL     1     -15.391   4.858 -16.537  0.00  0.00    +0.089 C 
ATOM     13  C   UNL     1     -15.982   5.303 -17.855  0.00  0.00    +0.045 C 
ATOM     14  C   UNL     1     -16.771   4.386 -16.976  0.00  0.00    +0.045 C 
BRANCH  12  15
ATOM     15  N   UNL     1     -15.294   5.765 -15.356  0.00  0.00    -0.278 NA
ATOM     16  C   UNL     1     -15.824   7.125 -15.628  0.00  0.00    +0.114 C 
ATOM     17  C   UNL     1     -15.601   8.062 -14.430  0.00  0.00    +0.175 C 
ATOM     18  O   UNL     1     -16.226   7.559 -13.246  0.00  0.00    -0.377 OA
ATOM     19  C   UNL     1     -15.717   6.257 -12.943  0.00  0.00    +0.175 C 
ATOM     20  C   UNL     1     -15.941   5.285 -14.111  0.00  0.00    +0.114 C 
ENDBRANCH  12  15
ENDBRANCH   1  12
TORSDOF 3
ENDMDL
MODEL 8
REMARK VINA RESULT:      -5.9     13.101     15.219
REMARK  Name = min_compound967.pdb
REMARK  3 active torsions:
REMARK  status: ('A' for Active; 'I' for Inactive)
REMARK    1  A    between atoms: _1  and  _2
REMARK    2  A    between atoms: _1  and  _17
REMARK    3  A    between atoms: _8  and  _18
REMARK                            x       y       z     vdW  Elec       q    Type
REMARK                         _______ _______ _______ _____ _____    ______ ____
ROOT
ATOM      1  N   UNL     1     -16.083  -1.727  -1.580  0.00  0.00    -0.293 N 
ATOM      2  H   UNL     1     -16.797  -1.264  -2.125  0.00  0.00    +0.151 HD
ATOM      3  C   UNL     1     -14.770  -1.677  -1.998  0.00  0.00    +0.245 C 
ATOM      4  O   UNL     1     -13.803  -2.144  -1.409  0.00  0.00    -0.270 OA
ENDROOT
BRANCH   3   5
ATOM      5  C   UNL     1     -14.552  -0.963  -3.277  0.00  0.00    +0.037 A 
ATOM      6  C   UNL     1     -14.130   0.372  -3.291  0.00  0.00    +0.014 A 
ATOM      7  C   UNL     1     -13.965   1.032  -4.512  0.00  0.00    +0.021 A 
ATOM      8  C   UNL     1     -14.215   0.356  -5.707  0.00  0.00    +0.041 A 
ATOM      9  C   UNL     1     -14.640  -0.973  -5.695  0.00  0.00    +0.021 A 
ATOM     10 CL   UNL     1     -14.009   1.173  -7.206  0.00  0.00    -0.084 Cl
ATOM     11  C   UNL     1     -14.819  -1.632  -4.477  0.00  0.00    +0.014 A 
ENDBRANCH   3   5
BRANCH   1  12
ATOM     12  C   UNL     1     -16.554  -2.407  -0.408  0.00  0.00    +0.089 C 
ATOM     13  C   UNL     1     -16.266  -1.906   0.988  0.00  0.00    +0.045 C 
ATOM     14  C   UNL     1     -17.603  -1.631   0.378  0.00  0.00    +0.045 C 
BRANCH  12  15
ATOM     15  N   UNL     1     -16.812  -3.847  -0.706  0.00  0.00    -0.278 NA
ATOM     16  C   UNL     1     -17.125  -4.092  -2.136  0.00  0.00    +0.114 C 
ATOM     17  C   UNL     1     -17.499  -5.563  -2.382  0.00  0.00    +0.175 C 
ATOM     18  O   UNL     1     -16.445  -6.445  -1.990  0.00  0.00    -0.377 OA
ATOM     19  C   UNL     1     -16.136  -6.250  -0.607  0.00  0.00    +0.175 C 
ATOM     20  C   UNL     1     -15.736  -4.793  -0.326  0.00  0.00    +0.114 C 
ENDBRANCH  12  15
ENDBRANCH   1  12
TORSDOF 3
ENDMDL
MODEL 9
REMARK VINA RESULT:      -5.9      3.790      6.504
REMARK  Name = min_compound967.pdb
REMARK  3 active torsions:
REMARK  status: ('A' for Active; 'I' for Inactive)
REMARK    1  A    between atoms: _1  and  _2
REMARK    2  A    between atoms: _1  and  _17
REMARK    3  A    between atoms: _8  and  _18
REMARK                            x       y       z     vdW  Elec       q    Type
REMARK                         _______ _______ _______ _____ _____    ______ ____
ROOT
ATOM      1  N   UNL     1     -14.141   5.111 -17.371  0.00  0.00    -0.293 N 
ATOM      2  H   UNL     1     -14.619   4.229 -17.249  0.00  0.00    +0.151 HD
ATOM      3  C   UNL     1     -12.766   5.154 -17.291  0.00  0.00    +0.245 C 
ATOM      4  O   UNL     1     -12.059   6.138 -17.472  0.00  0.00    -0.270 OA
ENDROOT
BRANCH   3   5
ATOM      5  C   UNL     1     -12.120   3.860 -16.972  0.00  0.00    +0.037 A 
ATOM      6  C   UNL     1     -12.343   2.731 -17.770  0.00  0.00    +0.014 A 
ATOM      7  C   UNL     1     -11.748   1.514 -17.426  0.00  0.00    +0.021 A 
ATOM      8  C   UNL     1     -10.934   1.433 -16.296  0.00  0.00    +0.041 A 
ATOM      9  C   UNL     1     -10.714   2.555 -15.497  0.00  0.00    +0.021 A 
ATOM     10 CL   UNL     1     -10.204  -0.067 -15.878  0.00  0.00    -0.084 Cl
ATOM     11  C   UNL     1     -11.317   3.770 -15.830  0.00  0.00    +0.014 A 
ENDBRANCH   3   5
BRANCH   1  12
ATOM     12  C   UNL     1     -14.993   6.240 -17.611  0.00  0.00    +0.089 C 
ATOM     13  C   UNL     1     -14.860   7.107 -18.842  0.00  0.00    +0.045 C 
ATOM     14  C   UNL     1     -15.933   6.065 -18.797  0.00  0.00    +0.045 C 
BRANCH  12  15
ATOM     15  N   UNL     1     -15.558   6.751 -16.328  0.00  0.00    -0.278 NA
ATOM     16  C   UNL     1     -15.390   5.797 -15.203  0.00  0.00    +0.114 C 
ATOM     17  C   UNL     1     -16.086   6.305 -13.929  0.00  0.00    +0.175 C 
ATOM     18  O   UNL     1     -15.575   7.578 -13.525  0.00  0.00    -0.377 OA
ATOM     19  C   UNL     1     -15.746   8.528 -14.581  0.00  0.00    +0.175 C 
ATOM     20  C   UNL     1     -15.045   8.063 -15.867  0.00  0.00    +0.114 C 
ENDBRANCH  12  15
ENDBRANCH   1  12
TORSDOF 3
ENDMDL
