MODEL 1
REMARK VINA RESULT:      -7.1      0.000      0.000
REMARK  Name = min_compound918.pdb
REMARK  2 active torsions:
REMARK  status: ('A' for Active; 'I' for Inactive)
REMARK    1  A    between atoms: _11  and  _13
REMARK    2  A    between atoms: _12  and  _14
REMARK                            x       y       z     vdW  Elec       q    Type
REMARK                         _______ _______ _______ _____ _____    ______ ____
ROOT
ATOM      1  C   UNL     1     -10.681  -0.319 -17.335  0.00  0.00    +0.000 C 
ATOM      2  C   UNL     1      -9.676   0.826 -17.350  0.00  0.00    +0.000 C 
ATOM      3  C   UNL     1      -9.913   1.917 -16.308  0.00  0.00    +0.004 C 
ATOM      4  C   UNL     1     -10.878   2.995 -16.803  0.00  0.00    +0.048 C 
ATOM      5  C   UNL     1     -12.372   2.617 -16.845  0.00  0.00    +0.129 C 
ATOM      6  N   UNL     1     -13.063   3.700 -17.597  0.00  0.00    -0.238 NA
ATOM      7  C   UNL     1     -13.815   4.230 -16.674  0.00  0.00    +0.169 C 
ATOM      8  N   UNL     1     -13.757   3.706 -15.400  0.00  0.00    -0.212 N 
ATOM      9  N   UNL     1     -12.911   2.565 -15.464  0.00  0.00    -0.207 NA
ATOM     10  H   UNL     1     -13.473   1.724 -15.366  0.00  0.00    +0.147 HD
ATOM     11  C   UNL     1     -12.663   1.305 -17.613  0.00  0.00    +0.048 C 
ATOM     12  C   UNL     1     -12.121   0.025 -16.975  0.00  0.00    +0.004 C 
ENDROOT
BRANCH   8  13
ATOM     13  C   UNL     1     -14.884   3.664 -14.537  0.00  0.00    +0.052 A 
ATOM     14  C   UNL     1     -15.899   2.726 -14.777  0.00  0.00    +0.025 A 
ATOM     15  C   UNL     1     -17.016   2.650 -13.941  0.00  0.00    +0.002 A 
ATOM     16  C   UNL     1     -17.134   3.515 -12.855  0.00  0.00    +0.000 A 
ATOM     17  C   UNL     1     -16.135   4.451 -12.601  0.00  0.00    +0.002 A 
ATOM     18  C   UNL     1     -15.016   4.525 -13.434  0.00  0.00    +0.025 A 
ENDBRANCH   8  13
BRANCH   7  19
ATOM     19  S   UNL     1     -14.835   5.567 -17.125  0.00  0.00    -0.107 S 
ATOM     20  H   UNL     1     -13.886   6.190 -17.834  0.00  0.00    +0.110 HD
ENDBRANCH   7  19
TORSDOF 2
ENDMDL
MODEL 2
REMARK VINA RESULT:      -6.9      1.852      5.829
REMARK  Name = min_compound918.pdb
REMARK  2 active torsions:
REMARK  status: ('A' for Active; 'I' for Inactive)
REMARK    1  A    between atoms: _11  and  _13
REMARK    2  A    between atoms: _12  and  _14
REMARK                            x       y       z     vdW  Elec       q    Type
REMARK                         _______ _______ _______ _____ _____    ______ ____
ROOT
ATOM      1  C   UNL     1     -17.427   2.984 -15.455  0.00  0.00    +0.000 C 
ATOM      2  C   UNL     1     -17.379   4.017 -16.574  0.00  0.00    +0.000 C 
ATOM      3  C   UNL     1     -16.366   3.736 -17.681  0.00  0.00    +0.004 C 
ATOM      4  C   UNL     1     -14.978   4.289 -17.355  0.00  0.00    +0.048 C 
ATOM      5  C   UNL     1     -14.154   3.510 -16.310  0.00  0.00    +0.129 C 
ATOM      6  N   UNL     1     -12.986   4.368 -15.967  0.00  0.00    -0.238 NA
ATOM      7  C   UNL     1     -11.991   3.664 -16.429  0.00  0.00    +0.169 C 
ATOM      8  N   UNL     1     -12.269   2.464 -17.048  0.00  0.00    -0.212 N 
ATOM      9  N   UNL     1     -13.667   2.243 -16.904  0.00  0.00    -0.207 NA
ATOM     10  H   UNL     1     -13.820   1.490 -16.239  0.00  0.00    +0.147 HD
ATOM     11  C   UNL     1     -14.908   3.257 -14.982  0.00  0.00    +0.048 C 
ATOM     12  C   UNL     1     -16.112   2.318 -15.068  0.00  0.00    +0.004 C 
ENDROOT
BRANCH   8  13
ATOM     13  C   UNL     1     -11.396   1.346 -16.977  0.00  0.00    +0.052 A 
ATOM     14  C   UNL     1     -11.840   0.165 -16.364  0.00  0.00    +0.025 A 
ATOM     15  C   UNL     1     -11.012  -0.957 -16.287  0.00  0.00    +0.002 A 
ATOM     16  C   UNL     1      -9.726  -0.912 -16.822  0.00  0.00    +0.000 A 
ATOM     17  C   UNL     1      -9.269   0.251 -17.435  0.00  0.00    +0.002 A 
ATOM     18  C   UNL     1     -10.099   1.373 -17.516  0.00  0.00    +0.025 A 
ENDBRANCH   8  13
BRANCH   7  19
ATOM     19  S   UNL     1     -10.383   4.301 -16.230  0.00  0.00    -0.107 S 
ATOM     20  H   UNL     1     -10.184   3.716 -15.042  0.00  0.00    +0.110 HD
ENDBRANCH   7  19
TORSDOF 2
ENDMDL
MODEL 3
REMARK VINA RESULT:      -6.8      6.272      8.455
REMARK  Name = min_compound918.pdb
REMARK  2 active torsions:
REMARK  status: ('A' for Active; 'I' for Inactive)
REMARK    1  A    between atoms: _11  and  _13
REMARK    2  A    between atoms: _12  and  _14
REMARK                            x       y       z     vdW  Elec       q    Type
REMARK                         _______ _______ _______ _____ _____    ______ ____
ROOT
ATOM      1  C   UNL     1     -16.771   4.046 -13.324  0.00  0.00    +0.000 C 
ATOM      2  C   UNL     1     -16.244   5.359 -12.756  0.00  0.00    +0.000 C 
ATOM      3  C   UNL     1     -15.295   5.223 -11.568  0.00  0.00    +0.004 C 
ATOM      4  C   UNL     1     -16.040   5.151 -10.234  0.00  0.00    +0.048 C 
ATOM      5  C   UNL     1     -16.746   3.820  -9.908  0.00  0.00    +0.129 C 
ATOM      6  N   UNL     1     -17.606   4.076  -8.720  0.00  0.00    -0.238 NA
ATOM      7  C   UNL     1     -17.039   3.331  -7.813  0.00  0.00    +0.169 C 
ATOM      8  N   UNL     1     -15.919   2.607  -8.166  0.00  0.00    -0.212 N 
ATOM      9  N   UNL     1     -15.736   2.791  -9.564  0.00  0.00    -0.207 NA
ATOM     10  H   UNL     1     -15.969   1.930 -10.049  0.00  0.00    +0.147 HD
ATOM     11  C   UNL     1     -17.694   3.327 -11.028  0.00  0.00    +0.048 C 
ATOM     12  C   UNL     1     -17.020   2.913 -12.337  0.00  0.00    +0.004 C 
ENDROOT
BRANCH   8  13
ATOM     13  C   UNL     1     -15.622   1.336  -7.606  0.00  0.00    +0.052 A 
ATOM     14  C   UNL     1     -14.458   1.178  -6.839  0.00  0.00    +0.025 A 
ATOM     15  C   UNL     1     -14.142  -0.055  -6.264  0.00  0.00    +0.002 A 
ATOM     16  C   UNL     1     -14.986  -1.148  -6.450  0.00  0.00    +0.000 A 
ATOM     17  C   UNL     1     -16.147  -1.009  -7.207  0.00  0.00    +0.002 A 
ATOM     18  C   UNL     1     -16.466   0.225  -7.779  0.00  0.00    +0.025 A 
ENDBRANCH   8  13
BRANCH   7  19
ATOM     19  S   UNL     1     -17.741   3.314  -6.219  0.00  0.00    -0.107 S 
ATOM     20  H   UNL     1     -17.853   4.646  -6.139  0.00  0.00    +0.110 HD
ENDBRANCH   7  19
TORSDOF 2
ENDMDL
MODEL 4
REMARK VINA RESULT:      -6.7      1.314      5.994
REMARK  Name = min_compound918.pdb
REMARK  2 active torsions:
REMARK  status: ('A' for Active; 'I' for Inactive)
REMARK    1  A    between atoms: _11  and  _13
REMARK    2  A    between atoms: _12  and  _14
REMARK                            x       y       z     vdW  Elec       q    Type
REMARK                         _______ _______ _______ _____ _____    ______ ____
ROOT
ATOM      1  C   UNL     1     -16.108   4.634 -12.633  0.00  0.00    +0.000 C 
ATOM      2  C   UNL     1     -17.313   3.889 -13.198  0.00  0.00    +0.000 C 
ATOM      3  C   UNL     1     -16.994   2.582 -13.919  0.00  0.00    +0.004 C 
ATOM      4  C   UNL     1     -16.661   2.798 -15.396  0.00  0.00    +0.048 C 
ATOM      5  C   UNL     1     -15.272   3.389 -15.710  0.00  0.00    +0.129 C 
ATOM      6  N   UNL     1     -15.283   3.753 -17.154  0.00  0.00    -0.238 NA
ATOM      7  C   UNL     1     -14.405   2.926 -17.647  0.00  0.00    +0.169 C 
ATOM      8  N   UNL     1     -13.791   2.036 -16.790  0.00  0.00    -0.212 N 
ATOM      9  N   UNL     1     -14.229   2.361 -15.477  0.00  0.00    -0.207 NA
ATOM     10  H   UNL     1     -13.462   2.785 -14.963  0.00  0.00    +0.147 HD
ATOM     11  C   UNL     1     -14.959   4.694 -14.939  0.00  0.00    +0.048 C 
ATOM     12  C   UNL     1     -14.809   4.552 -13.423  0.00  0.00    +0.004 C 
ENDROOT
BRANCH   8  13
ATOM     13  C   UNL     1     -12.449   1.604 -16.968  0.00  0.00    +0.052 A 
ATOM     14  C   UNL     1     -11.422   2.558 -17.026  0.00  0.00    +0.025 A 
ATOM     15  C   UNL     1     -10.091   2.168 -17.189  0.00  0.00    +0.002 A 
ATOM     16  C   UNL     1      -9.769   0.817 -17.298  0.00  0.00    +0.000 A 
ATOM     17  C   UNL     1     -10.775  -0.144 -17.242  0.00  0.00    +0.002 A 
ATOM     18  C   UNL     1     -12.107   0.245 -17.075  0.00  0.00    +0.025 A 
ENDBRANCH   8  13
BRANCH   7  19
ATOM     19  S   UNL     1     -14.079   3.007 -19.355  0.00  0.00    -0.107 S 
ATOM     20  H   UNL     1     -14.202   4.339 -19.423  0.00  0.00    +0.110 HD
ENDBRANCH   7  19
TORSDOF 2
ENDMDL
MODEL 5
REMARK VINA RESULT:      -6.7      2.451      4.694
REMARK  Name = min_compound918.pdb
REMARK  2 active torsions:
REMARK  status: ('A' for Active; 'I' for Inactive)
REMARK    1  A    between atoms: _11  and  _13
REMARK    2  A    between atoms: _12  and  _14
REMARK                            x       y       z     vdW  Elec       q    Type
REMARK                         _______ _______ _______ _____ _____    ______ ____
ROOT
ATOM      1  C   UNL     1      -9.877  -0.083 -15.735  0.00  0.00    +0.000 C 
ATOM      2  C   UNL     1     -11.200  -0.827 -15.871  0.00  0.00    +0.000 C 
ATOM      3  C   UNL     1     -12.122  -0.324 -16.979  0.00  0.00    +0.004 C 
ATOM      4  C   UNL     1     -13.020   0.823 -16.513  0.00  0.00    +0.048 C 
ATOM      5  C   UNL     1     -12.350   2.202 -16.351  0.00  0.00    +0.129 C 
ATOM      6  N   UNL     1     -13.333   3.071 -15.646  0.00  0.00    -0.238 NA
ATOM      7  C   UNL     1     -13.614   3.956 -16.560  0.00  0.00    +0.169 C 
ATOM      8  N   UNL     1     -13.000   3.844 -17.791  0.00  0.00    -0.212 N 
ATOM      9  N   UNL     1     -12.066   2.777 -17.688  0.00  0.00    -0.207 NA
ATOM     10  H   UNL     1     -11.123   3.156 -17.686  0.00  0.00    +0.147 HD
ATOM     11  C   UNL     1     -11.081   2.180 -15.465  0.00  0.00    +0.048 C 
ATOM     12  C   UNL     1      -9.887   1.411 -16.032  0.00  0.00    +0.004 C 
ENDROOT
BRANCH   8  13
ATOM     13  C   UNL     1     -12.652   4.974 -18.577  0.00  0.00    +0.052 A 
ATOM     14  C   UNL     1     -12.995   4.996 -19.938  0.00  0.00    +0.025 A 
ATOM     15  C   UNL     1     -12.678   6.097 -20.738  0.00  0.00    +0.002 A 
ATOM     16  C   UNL     1     -12.013   7.190 -20.188  0.00  0.00    +0.000 A 
ATOM     17  C   UNL     1     -11.667   7.187 -18.839  0.00  0.00    +0.002 A 
ATOM     18  C   UNL     1     -11.986   6.088 -18.037  0.00  0.00    +0.025 A 
ENDBRANCH   8  13
BRANCH   7  19
ATOM     19  S   UNL     1     -14.749   5.212 -16.155  0.00  0.00    -0.107 S 
ATOM     20  H   UNL     1     -15.389   4.482 -15.233  0.00  0.00    +0.110 HD
ENDBRANCH   7  19
TORSDOF 2
ENDMDL
MODEL 6
REMARK VINA RESULT:      -6.4      2.858      5.376
REMARK  Name = min_compound918.pdb
REMARK  2 active torsions:
REMARK  status: ('A' for Active; 'I' for Inactive)
REMARK    1  A    between atoms: _11  and  _13
REMARK    2  A    between atoms: _12  and  _14
REMARK                            x       y       z     vdW  Elec       q    Type
REMARK                         _______ _______ _______ _____ _____    ______ ____
ROOT
ATOM      1  C   UNL     1     -13.083   5.936 -21.879  0.00  0.00    +0.000 C 
ATOM      2  C   UNL     1     -12.687   7.166 -21.070  0.00  0.00    +0.000 C 
ATOM      3  C   UNL     1     -11.724   6.906 -19.915  0.00  0.00    +0.004 C 
ATOM      4  C   UNL     1     -12.451   6.515 -18.628  0.00  0.00    +0.048 C 
ATOM      5  C   UNL     1     -13.020   5.083 -18.564  0.00  0.00    +0.129 C 
ATOM      6  N   UNL     1     -13.896   5.028 -17.361  0.00  0.00    -0.238 NA
ATOM      7  C   UNL     1     -13.253   4.188 -16.599  0.00  0.00    +0.169 C 
ATOM      8  N   UNL     1     -12.069   3.656 -17.065  0.00  0.00    -0.212 N 
ATOM      9  N   UNL     1     -11.911   4.113 -18.402  0.00  0.00    -0.207 NA
ATOM     10  H   UNL     1     -12.059   3.338 -19.041  0.00  0.00    +0.147 HD
ATOM     11  C   UNL     1     -13.919   4.715 -19.769  0.00  0.00    +0.048 C 
ATOM     12  C   UNL     1     -13.213   4.620 -21.123  0.00  0.00    +0.004 C 
ENDROOT
BRANCH   8  13
ATOM     13  C   UNL     1     -11.644   2.339 -16.745  0.00  0.00    +0.052 A 
ATOM     14  C   UNL     1     -12.305   1.245 -17.323  0.00  0.00    +0.025 A 
ATOM     15  C   UNL     1     -11.906  -0.064 -17.040  0.00  0.00    +0.002 A 
ATOM     16  C   UNL     1     -10.840  -0.295 -16.173  0.00  0.00    +0.000 A 
ATOM     17  C   UNL     1     -10.171   0.779 -15.592  0.00  0.00    +0.002 A 
ATOM     18  C   UNL     1     -10.567   2.088 -15.877  0.00  0.00    +0.025 A 
ENDBRANCH   8  13
BRANCH   7  19
ATOM     19  S   UNL     1     -13.943   3.806 -15.047  0.00  0.00    -0.107 S 
ATOM     20  H   UNL     1     -13.888   2.481 -15.231  0.00  0.00    +0.110 HD
ENDBRANCH   7  19
TORSDOF 2
ENDMDL
MODEL 7
REMARK VINA RESULT:      -6.4      1.619      2.024
REMARK  Name = min_compound918.pdb
REMARK  2 active torsions:
REMARK  status: ('A' for Active; 'I' for Inactive)
REMARK    1  A    between atoms: _11  and  _13
REMARK    2  A    between atoms: _12  and  _14
REMARK                            x       y       z     vdW  Elec       q    Type
REMARK                         _______ _______ _______ _____ _____    ______ ____
ROOT
ATOM      1  C   UNL     1     -10.896  -0.724 -16.713  0.00  0.00    +0.000 C 
ATOM      2  C   UNL     1      -9.799   0.079 -16.023  0.00  0.00    +0.000 C 
ATOM      3  C   UNL     1     -10.287   1.192 -15.101  0.00  0.00    +0.004 C 
ATOM      4  C   UNL     1     -10.529   2.504 -15.849  0.00  0.00    +0.048 C 
ATOM      5  C   UNL     1     -11.798   2.578 -16.721  0.00  0.00    +0.129 C 
ATOM      6  N   UNL     1     -11.678   3.814 -17.542  0.00  0.00    -0.238 NA
ATOM      7  C   UNL     1     -12.653   4.542 -17.075  0.00  0.00    +0.169 C 
ATOM      8  N   UNL     1     -13.428   4.026 -16.058  0.00  0.00    -0.212 N 
ATOM      9  N   UNL     1     -12.994   2.687 -15.851  0.00  0.00    -0.207 NA
ATOM     10  H   UNL     1     -13.705   2.047 -16.192  0.00  0.00    +0.147 HD
ATOM     11  C   UNL     1     -11.936   1.407 -17.723  0.00  0.00    +0.048 C 
ATOM     12  C   UNL     1     -12.162   0.025 -17.107  0.00  0.00    +0.004 C 
ENDROOT
BRANCH   8  13
ATOM     13  C   UNL     1     -14.812   4.316 -15.927  0.00  0.00    +0.052 A 
ATOM     14  C   UNL     1     -15.236   5.201 -14.924  0.00  0.00    +0.025 A 
ATOM     15  C   UNL     1     -16.589   5.518 -14.775  0.00  0.00    +0.002 A 
ATOM     16  C   UNL     1     -17.536   4.952 -15.626  0.00  0.00    +0.000 A 
ATOM     17  C   UNL     1     -17.132   4.072 -16.627  0.00  0.00    +0.002 A 
ATOM     18  C   UNL     1     -15.779   3.757 -16.779  0.00  0.00    +0.025 A 
ENDBRANCH   8  13
BRANCH   7  19
ATOM     19  S   UNL     1     -12.899   6.118 -17.775  0.00  0.00    -0.107 S 
ATOM     20  H   UNL     1     -12.724   6.774 -16.621  0.00  0.00    +0.110 HD
ENDBRANCH   7  19
TORSDOF 2
ENDMDL
MODEL 8
REMARK VINA RESULT:      -6.3      1.400      6.030
REMARK  Name = min_compound918.pdb
REMARK  2 active torsions:
REMARK  status: ('A' for Active; 'I' for Inactive)
REMARK    1  A    between atoms: _11  and  _13
REMARK    2  A    between atoms: _12  and  _14
REMARK                            x       y       z     vdW  Elec       q    Type
REMARK                         _______ _______ _______ _____ _____    ______ ____
ROOT
ATOM      1  C   UNL     1     -16.105   4.502 -10.697  0.00  0.00    +0.000 C 
ATOM      2  C   UNL     1     -17.360   3.963 -11.375  0.00  0.00    +0.000 C 
ATOM      3  C   UNL     1     -17.114   3.000 -12.534  0.00  0.00    +0.004 C 
ATOM      4  C   UNL     1     -16.924   3.728 -13.865  0.00  0.00    +0.048 C 
ATOM      5  C   UNL     1     -15.570   4.436 -14.078  0.00  0.00    +0.129 C 
ATOM      6  N   UNL     1     -15.720   5.280 -15.295  0.00  0.00    -0.238 NA
ATOM      7  C   UNL     1     -14.895   4.704 -16.124  0.00  0.00    +0.169 C 
ATOM      8  N   UNL     1     -14.202   3.592 -15.693  0.00  0.00    -0.212 N 
ATOM      9  N   UNL     1     -14.512   3.425 -14.315  0.00  0.00    -0.207 NA
ATOM     10  H   UNL     1     -13.698   3.668 -13.757  0.00  0.00    +0.147 HD
ATOM     11  C   UNL     1     -15.183   5.399 -12.930  0.00  0.00    +0.048 C 
ATOM     12  C   UNL     1     -14.887   4.743 -11.580  0.00  0.00    +0.004 C 
ENDROOT
BRANCH   8  13
ATOM     13  C   UNL     1     -12.885   3.293 -16.132  0.00  0.00    +0.052 A 
ATOM     14  C   UNL     1     -12.680   2.215 -17.005  0.00  0.00    +0.025 A 
ATOM     15  C   UNL     1     -11.399   1.900 -17.466  0.00  0.00    +0.002 A 
ATOM     16  C   UNL     1     -10.305   2.659 -17.056  0.00  0.00    +0.000 A 
ATOM     17  C   UNL     1     -10.490   3.734 -16.190  0.00  0.00    +0.002 A 
ATOM     18  C   UNL     1     -11.772   4.052 -15.733  0.00  0.00    +0.025 A 
ENDBRANCH   8  13
BRANCH   7  19
ATOM     19  S   UNL     1     -14.735   5.387 -17.718  0.00  0.00    -0.107 S 
ATOM     20  H   UNL     1     -13.413   5.576 -17.619  0.00  0.00    +0.110 HD
ENDBRANCH   7  19
TORSDOF 2
ENDMDL
MODEL 9
REMARK VINA RESULT:      -6.3      3.178      5.406
REMARK  Name = min_compound918.pdb
REMARK  2 active torsions:
REMARK  status: ('A' for Active; 'I' for Inactive)
REMARK    1  A    between atoms: _11  and  _13
REMARK    2  A    between atoms: _12  and  _14
REMARK                            x       y       z     vdW  Elec       q    Type
REMARK                         _______ _______ _______ _____ _____    ______ ____
ROOT
ATOM      1  C   UNL     1     -13.696   2.749 -23.155  0.00  0.00    +0.000 C 
ATOM      2  C   UNL     1     -13.862   4.222 -22.797  0.00  0.00    +0.000 C 
ATOM      3  C   UNL     1     -13.039   4.701 -21.605  0.00  0.00    +0.004 C 
ATOM      4  C   UNL     1     -13.759   4.481 -20.274  0.00  0.00    +0.048 C 
ATOM      5  C   UNL     1     -13.806   3.033 -19.745  0.00  0.00    +0.129 C 
ATOM      6  N   UNL     1     -14.767   3.027 -18.609  0.00  0.00    -0.238 NA
ATOM      7  C   UNL     1     -13.988   2.759 -17.599  0.00  0.00    +0.169 C 
ATOM      8  N   UNL     1     -12.640   2.588 -17.839  0.00  0.00    -0.212 N 
ATOM      9  N   UNL     1     -12.465   2.641 -19.249  0.00  0.00    -0.207 NA
ATOM     10  H   UNL     1     -12.248   1.711 -19.595  0.00  0.00    +0.147 HD
ATOM     11  C   UNL     1     -14.347   2.011 -20.773  0.00  0.00    +0.048 C 
ATOM     12  C   UNL     1     -13.471   1.776 -22.005  0.00  0.00    +0.004 C 
ENDROOT
BRANCH   8  13
ATOM     13  C   UNL     1     -11.838   1.686 -17.091  0.00  0.00    +0.052 A 
ATOM     14  C   UNL     1     -11.903   0.313 -17.372  0.00  0.00    +0.025 A 
ATOM     15  C   UNL     1     -11.119  -0.600 -16.663  0.00  0.00    +0.002 A 
ATOM     16  C   UNL     1     -10.261  -0.153 -15.661  0.00  0.00    +0.000 A 
ATOM     17  C   UNL     1     -10.183   1.206 -15.369  0.00  0.00    +0.002 A 
ATOM     18  C   UNL     1     -10.964   2.121 -16.080  0.00  0.00    +0.025 A 
ENDBRANCH   8  13
BRANCH   7  19
ATOM     19  S   UNL     1     -14.712   2.642 -16.020  0.00  0.00    -0.107 S 
ATOM     20  H   UNL     1     -15.749   3.434 -16.321  0.00  0.00    +0.110 HD
ENDBRANCH   7  19
TORSDOF 2
ENDMDL
