MODEL 1
REMARK VINA RESULT:      -6.1      0.000      0.000
REMARK  Name = min_compound913.pdb
REMARK  6 active torsions:
REMARK  status: ('A' for Active; 'I' for Inactive)
REMARK    1  A    between atoms: _1  and  _2
REMARK    2  A    between atoms: _1  and  _15
REMARK    3  A    between atoms: _7  and  _8
REMARK    4  A    between atoms: _13  and  _16
REMARK    5  A    between atoms: _13  and  _17
REMARK    6  A    between atoms: _17  and  _18
REMARK                            x       y       z     vdW  Elec       q    Type
REMARK                         _______ _______ _______ _____ _____    ______ ____
ROOT
ATOM      1  N   UNL     1     -13.947   3.260 -17.793  0.00  0.00    -0.226 NA
ATOM      2  C   UNL     1     -13.769   4.210 -18.640  0.00  0.00    +0.155 C 
ATOM      3  S   UNL     1     -15.200   5.022 -19.281  0.00  0.00    -0.088 S 
ATOM      4  C   UNL     1     -14.201   6.190 -20.263  0.00  0.00    +0.104 C 
ATOM      5  C   UNL     1     -12.797   6.151 -19.635  0.00  0.00    +0.063 C 
ATOM      6  C   UNL     1     -11.722   6.430 -20.688  0.00  0.00    +0.035 C 
ATOM      7  N   UNL     1     -12.629   4.786 -19.133  0.00  0.00    -0.315 N 
ATOM      8  H   UNL     1     -11.789   4.636 -18.581  0.00  0.00    +0.149 HD
ENDROOT
BRANCH   1  12
ATOM      9  C   UNL     1     -10.683   1.249 -16.047  0.00  0.00    +0.120 A 
ATOM     10  C   UNL     1     -11.232   0.810 -17.255  0.00  0.00    +0.048 A 
ATOM     11  C   UNL     1     -12.305   1.490 -17.837  0.00  0.00    +0.031 A 
ATOM     12  C   UNL     1     -12.836   2.625 -17.227  0.00  0.00    +0.067 A 
ATOM     13  C   UNL     1     -12.290   3.059 -16.015  0.00  0.00    +0.031 A 
ATOM     14  C   UNL     1     -11.212   2.383 -15.432  0.00  0.00    +0.048 A 
BRANCH   9  15
ATOM     15  O   UNL     1      -9.648   0.488 -15.577  0.00  0.00    -0.495 OA
ATOM     16  C   UNL     1      -9.652  -0.887 -15.935  0.00  0.00    +0.277 C 
ENDBRANCH   9  15
ENDBRANCH   1  12
BRANCH   5  17
ATOM     17  C   UNL     1     -12.677   7.151 -18.454  0.00  0.00    +0.182 C 
BRANCH  17  18
ATOM     18  O   UNL     1     -11.366   7.720 -18.414  0.00  0.00    -0.393 OA
ATOM     19  H   UNL     1     -11.115   7.919 -19.333  0.00  0.00    +0.209 HD
ENDBRANCH  17  18
ENDBRANCH   5  17
TORSDOF 4
ENDMDL
MODEL 2
REMARK VINA RESULT:      -6.1      3.880      5.987
REMARK  Name = min_compound913.pdb
REMARK  6 active torsions:
REMARK  status: ('A' for Active; 'I' for Inactive)
REMARK    1  A    between atoms: _1  and  _2
REMARK    2  A    between atoms: _1  and  _15
REMARK    3  A    between atoms: _7  and  _8
REMARK    4  A    between atoms: _13  and  _16
REMARK    5  A    between atoms: _13  and  _17
REMARK    6  A    between atoms: _17  and  _18
REMARK                            x       y       z     vdW  Elec       q    Type
REMARK                         _______ _______ _______ _____ _____    ______ ____
ROOT
ATOM      1  N   UNL     1     -14.525   3.347 -16.681  0.00  0.00    -0.226 NA
ATOM      2  C   UNL     1     -13.655   2.451 -16.986  0.00  0.00    +0.155 C 
ATOM      3  S   UNL     1     -12.899   2.545 -18.579  0.00  0.00    -0.088 S 
ATOM      4  C   UNL     1     -11.827   1.107 -18.247  0.00  0.00    +0.104 C 
ATOM      5  C   UNL     1     -11.814   0.954 -16.716  0.00  0.00    +0.063 C 
ATOM      6  C   UNL     1     -11.634  -0.513 -16.318  0.00  0.00    +0.035 C 
ATOM      7  N   UNL     1     -13.130   1.413 -16.266  0.00  0.00    -0.315 N 
ATOM      8  H   UNL     1     -13.232   1.484 -15.257  0.00  0.00    +0.149 HD
ENDROOT
BRANCH   1  12
ATOM      9  C   UNL     1     -16.390   3.381 -12.904  0.00  0.00    +0.120 A 
ATOM     10  C   UNL     1     -16.873   2.569 -13.934  0.00  0.00    +0.048 A 
ATOM     11  C   UNL     1     -16.241   2.550 -15.180  0.00  0.00    +0.031 A 
ATOM     12  C   UNL     1     -15.111   3.332 -15.411  0.00  0.00    +0.067 A 
ATOM     13  C   UNL     1     -14.633   4.150 -14.381  0.00  0.00    +0.031 A 
ATOM     14  C   UNL     1     -15.261   4.167 -13.130  0.00  0.00    +0.048 A 
BRANCH   9  15
ATOM     15  O   UNL     1     -17.106   3.318 -11.741  0.00  0.00    -0.495 OA
ATOM     16  C   UNL     1     -16.488   3.858 -10.580  0.00  0.00    +0.277 C 
ENDBRANCH   9  15
ENDBRANCH   1  12
BRANCH   5  17
ATOM     17  C   UNL     1     -10.714   1.835 -16.068  0.00  0.00    +0.182 C 
BRANCH  17  18
ATOM     18  O   UNL     1      -9.959   1.075 -15.121  0.00  0.00    -0.393 OA
ATOM     19  H   UNL     1      -9.184   1.612 -14.879  0.00  0.00    +0.209 HD
ENDBRANCH  17  18
ENDBRANCH   5  17
TORSDOF 4
ENDMDL
MODEL 3
REMARK VINA RESULT:      -6.0      3.803      6.028
REMARK  Name = min_compound913.pdb
REMARK  6 active torsions:
REMARK  status: ('A' for Active; 'I' for Inactive)
REMARK    1  A    between atoms: _1  and  _2
REMARK    2  A    between atoms: _1  and  _15
REMARK    3  A    between atoms: _7  and  _8
REMARK    4  A    between atoms: _13  and  _16
REMARK    5  A    between atoms: _13  and  _17
REMARK    6  A    between atoms: _17  and  _18
REMARK                            x       y       z     vdW  Elec       q    Type
REMARK                         _______ _______ _______ _____ _____    ______ ____
ROOT
ATOM      1  N   UNL     1     -14.450   3.494 -16.700  0.00  0.00    -0.226 NA
ATOM      2  C   UNL     1     -13.610   2.563 -16.982  0.00  0.00    +0.155 C 
ATOM      3  S   UNL     1     -12.764   2.655 -18.529  0.00  0.00    -0.088 S 
ATOM      4  C   UNL     1     -11.784   1.159 -18.178  0.00  0.00    +0.104 C 
ATOM      5  C   UNL     1     -11.862   0.970 -16.653  0.00  0.00    +0.063 C 
ATOM      6  C   UNL     1     -11.776  -0.513 -16.284  0.00  0.00    +0.035 C 
ATOM      7  N   UNL     1     -13.176   1.484 -16.261  0.00  0.00    -0.315 N 
ATOM      8  H   UNL     1     -13.329   1.536 -15.258  0.00  0.00    +0.149 HD
ENDROOT
BRANCH   1  12
ATOM      9  C   UNL     1     -16.316   3.379 -12.925  0.00  0.00    +0.120 A 
ATOM     10  C   UNL     1     -15.243   4.241 -13.168  0.00  0.00    +0.048 A 
ATOM     11  C   UNL     1     -14.638   4.286 -14.426  0.00  0.00    +0.031 A 
ATOM     12  C   UNL     1     -15.104   3.480 -15.464  0.00  0.00    +0.067 A 
ATOM     13  C   UNL     1     -16.173   2.613 -15.217  0.00  0.00    +0.031 A 
ATOM     14  C   UNL     1     -16.786   2.570 -13.959  0.00  0.00    +0.048 A 
BRANCH   9  15
ATOM     15  O   UNL     1     -16.809   3.421 -11.650  0.00  0.00    -0.495 OA
ATOM     16  C   UNL     1     -15.997   4.056 -10.671  0.00  0.00    +0.277 C 
ENDBRANCH   9  15
ENDBRANCH   1  12
BRANCH   5  17
ATOM     17  C   UNL     1     -10.756   1.779 -15.925  0.00  0.00    +0.182 C 
BRANCH  17  18
ATOM     18  O   UNL     1      -9.939   0.910 -15.136  0.00  0.00    -0.393 OA
ATOM     19  H   UNL     1     -10.112   1.128 -14.203  0.00  0.00    +0.209 HD
ENDBRANCH  17  18
ENDBRANCH   5  17
TORSDOF 4
ENDMDL
MODEL 4
REMARK VINA RESULT:      -5.9      3.471      4.738
REMARK  Name = min_compound913.pdb
REMARK  6 active torsions:
REMARK  status: ('A' for Active; 'I' for Inactive)
REMARK    1  A    between atoms: _1  and  _2
REMARK    2  A    between atoms: _1  and  _15
REMARK    3  A    between atoms: _7  and  _8
REMARK    4  A    between atoms: _13  and  _16
REMARK    5  A    between atoms: _13  and  _17
REMARK    6  A    between atoms: _17  and  _18
REMARK                            x       y       z     vdW  Elec       q    Type
REMARK                         _______ _______ _______ _____ _____    ______ ____
ROOT
ATOM      1  N   UNL     1     -13.755   4.087 -16.651  0.00  0.00    -0.226 NA
ATOM      2  C   UNL     1     -14.486   4.476 -15.668  0.00  0.00    +0.155 C 
ATOM      3  S   UNL     1     -15.845   5.545 -16.023  0.00  0.00    -0.088 S 
ATOM      4  C   UNL     1     -16.384   5.577 -14.281  0.00  0.00    +0.104 C 
ATOM      5  C   UNL     1     -15.722   4.352 -13.628  0.00  0.00    +0.063 C 
ATOM      6  C   UNL     1     -15.436   4.613 -12.148  0.00  0.00    +0.035 C 
ATOM      7  N   UNL     1     -14.452   4.170 -14.334  0.00  0.00    -0.315 N 
ATOM      8  H   UNL     1     -13.950   3.320 -14.092  0.00  0.00    +0.149 HD
ENDROOT
BRANCH   1  12
ATOM      9  C   UNL     1     -10.633   1.382 -15.823  0.00  0.00    +0.120 A 
ATOM     10  C   UNL     1     -11.855   0.932 -16.328  0.00  0.00    +0.048 A 
ATOM     11  C   UNL     1     -12.882   1.835 -16.615  0.00  0.00    +0.031 A 
ATOM     12  C   UNL     1     -12.698   3.202 -16.414  0.00  0.00    +0.067 A 
ATOM     13  C   UNL     1     -11.476   3.650 -15.901  0.00  0.00    +0.031 A 
ATOM     14  C   UNL     1     -10.443   2.749 -15.618  0.00  0.00    +0.048 A 
BRANCH   9  15
ATOM     15  O   UNL     1      -9.718   0.397 -15.571  0.00  0.00    -0.495 OA
ATOM     16  C   UNL     1      -9.653  -0.669 -16.509  0.00  0.00    +0.277 C 
ENDBRANCH   9  15
ENDBRANCH   1  12
BRANCH   5  17
ATOM     17  C   UNL     1     -16.592   3.079 -13.800  0.00  0.00    +0.182 C 
BRANCH  17  18
ATOM     18  O   UNL     1     -17.178   2.702 -12.552  0.00  0.00    -0.393 OA
ATOM     19  H   UNL     1     -17.141   1.731 -12.503  0.00  0.00    +0.209 HD
ENDBRANCH  17  18
ENDBRANCH   5  17
TORSDOF 4
ENDMDL
MODEL 5
REMARK VINA RESULT:      -5.6      8.472     10.883
REMARK  Name = min_compound913.pdb
REMARK  6 active torsions:
REMARK  status: ('A' for Active; 'I' for Inactive)
REMARK    1  A    between atoms: _1  and  _2
REMARK    2  A    between atoms: _1  and  _15
REMARK    3  A    between atoms: _7  and  _8
REMARK    4  A    between atoms: _13  and  _16
REMARK    5  A    between atoms: _13  and  _17
REMARK    6  A    between atoms: _17  and  _18
REMARK                            x       y       z     vdW  Elec       q    Type
REMARK                         _______ _______ _______ _____ _____    ______ ____
ROOT
ATOM      1  N   UNL     1     -17.349   3.588  -9.017  0.00  0.00    -0.226 NA
ATOM      2  C   UNL     1     -16.807   2.814  -8.146  0.00  0.00    +0.155 C 
ATOM      3  S   UNL     1     -17.630   2.611  -6.598  0.00  0.00    -0.088 S 
ATOM      4  C   UNL     1     -16.392   1.414  -6.000  0.00  0.00    +0.104 C 
ATOM      5  C   UNL     1     -15.675   0.906  -7.263  0.00  0.00    +0.063 C 
ATOM      6  C   UNL     1     -14.224   0.531  -6.951  0.00  0.00    +0.035 C 
ATOM      7  N   UNL     1     -15.685   2.032  -8.199  0.00  0.00    -0.315 N 
ATOM      8  H   UNL     1     -15.349   1.811  -9.132  0.00  0.00    +0.149 HD
ENDROOT
BRANCH   1  12
ATOM      9  C   UNL     1     -15.607   4.157 -12.811  0.00  0.00    +0.120 A 
ATOM     10  C   UNL     1     -15.119   4.834 -11.690  0.00  0.00    +0.048 A 
ATOM     11  C   UNL     1     -15.691   4.630 -10.431  0.00  0.00    +0.031 A 
ATOM     12  C   UNL     1     -16.749   3.737 -10.273  0.00  0.00    +0.067 A 
ATOM     13  C   UNL     1     -17.241   3.066 -11.397  0.00  0.00    +0.031 A 
ATOM     14  C   UNL     1     -16.667   3.263 -12.658  0.00  0.00    +0.048 A 
BRANCH   9  15
ATOM     15  O   UNL     1     -14.971   4.455 -13.984  0.00  0.00    -0.495 OA
ATOM     16  C   UNL     1     -15.138   3.535 -15.055  0.00  0.00    +0.277 C 
ENDBRANCH   9  15
ENDBRANCH   1  12
BRANCH   5  17
ATOM     17  C   UNL     1     -16.426  -0.295  -7.896  0.00  0.00    +0.182 C 
BRANCH  17  18
ATOM     18  O   UNL     1     -16.246  -1.470  -7.103  0.00  0.00    -0.393 OA
ATOM     19  H   UNL     1     -17.134  -1.779  -6.848  0.00  0.00    +0.209 HD
ENDBRANCH  17  18
ENDBRANCH   5  17
TORSDOF 4
ENDMDL
MODEL 6
REMARK VINA RESULT:      -5.4     10.828     13.267
REMARK  Name = min_compound913.pdb
REMARK  6 active torsions:
REMARK  status: ('A' for Active; 'I' for Inactive)
REMARK    1  A    between atoms: _1  and  _2
REMARK    2  A    between atoms: _1  and  _15
REMARK    3  A    between atoms: _7  and  _8
REMARK    4  A    between atoms: _13  and  _16
REMARK    5  A    between atoms: _13  and  _17
REMARK    6  A    between atoms: _17  and  _18
REMARK                            x       y       z     vdW  Elec       q    Type
REMARK                         _______ _______ _______ _____ _____    ______ ____
ROOT
ATOM      1  N   UNL     1     -17.714   1.564  -6.534  0.00  0.00    -0.226 NA
ATOM      2  C   UNL     1     -16.913   1.155  -5.615  0.00  0.00    +0.155 C 
ATOM      3  S   UNL     1     -17.518  -0.038  -4.464  0.00  0.00    -0.088 S 
ATOM      4  C   UNL     1     -15.911  -0.156  -3.612  0.00  0.00    +0.104 C 
ATOM      5  C   UNL     1     -14.882   0.408  -4.606  0.00  0.00    +0.063 C 
ATOM      6  C   UNL     1     -13.713   1.063  -3.865  0.00  0.00    +0.035 C 
ATOM      7  N   UNL     1     -15.596   1.434  -5.369  0.00  0.00    -0.315 N 
ATOM      8  H   UNL     1     -15.075   1.819  -6.153  0.00  0.00    +0.149 HD
ENDROOT
BRANCH   1  12
ATOM      9  C   UNL     1     -16.459   4.319  -9.463  0.00  0.00    +0.120 A 
ATOM     10  C   UNL     1     -17.076   4.755  -8.288  0.00  0.00    +0.048 A 
ATOM     11  C   UNL     1     -17.476   3.838  -7.313  0.00  0.00    +0.031 A 
ATOM     12  C   UNL     1     -17.255   2.474  -7.492  0.00  0.00    +0.067 A 
ATOM     13  C   UNL     1     -16.643   2.038  -8.673  0.00  0.00    +0.031 A 
ATOM     14  C   UNL     1     -16.236   2.955  -9.649  0.00  0.00    +0.048 A 
BRANCH   9  15
ATOM     15  O   UNL     1     -16.130   5.314 -10.342  0.00  0.00    -0.495 OA
ATOM     16  C   UNL     1     -15.155   5.000 -11.327  0.00  0.00    +0.277 C 
ENDBRANCH   9  15
ENDBRANCH   1  12
BRANCH   5  17
ATOM     17  C   UNL     1     -14.369  -0.689  -5.575  0.00  0.00    +0.182 C 
BRANCH  17  18
ATOM     18  O   UNL     1     -14.514  -1.983  -4.985  0.00  0.00    -0.393 OA
ATOM     19  H   UNL     1     -14.973  -1.858  -4.135  0.00  0.00    +0.209 HD
ENDBRANCH  17  18
ENDBRANCH   5  17
TORSDOF 4
ENDMDL
MODEL 7
REMARK VINA RESULT:      -5.3     11.742     13.251
REMARK  Name = min_compound913.pdb
REMARK  6 active torsions:
REMARK  status: ('A' for Active; 'I' for Inactive)
REMARK    1  A    between atoms: _1  and  _2
REMARK    2  A    between atoms: _1  and  _15
REMARK    3  A    between atoms: _7  and  _8
REMARK    4  A    between atoms: _13  and  _16
REMARK    5  A    between atoms: _13  and  _17
REMARK    6  A    between atoms: _17  and  _18
REMARK                            x       y       z     vdW  Elec       q    Type
REMARK                         _______ _______ _______ _____ _____    ______ ____
ROOT
ATOM      1  N   UNL     1     -14.851   1.325  -7.034  0.00  0.00    -0.226 NA
ATOM      2  C   UNL     1     -16.017   1.804  -7.283  0.00  0.00    +0.155 C 
ATOM      3  S   UNL     1     -16.281   2.558  -8.858  0.00  0.00    -0.088 S 
ATOM      4  C   UNL     1     -18.039   2.882  -8.501  0.00  0.00    +0.104 C 
ATOM      5  C   UNL     1     -18.401   1.938  -7.342  0.00  0.00    +0.063 C 
ATOM      6  C   UNL     1     -19.493   2.551  -6.462  0.00  0.00    +0.035 C 
ATOM      7  N   UNL     1     -17.175   1.800  -6.553  0.00  0.00    -0.315 N 
ATOM      8  H   UNL     1     -17.223   1.106  -5.812  0.00  0.00    +0.149 HD
ENDROOT
BRANCH   1  12
ATOM      9  C   UNL     1     -14.283  -0.634  -3.349  0.00  0.00    +0.120 A 
ATOM     10  C   UNL     1     -14.611  -1.355  -4.500  0.00  0.00    +0.048 A 
ATOM     11  C   UNL     1     -14.783  -0.702  -5.723  0.00  0.00    +0.031 A 
ATOM     12  C   UNL     1     -14.617   0.679  -5.816  0.00  0.00    +0.067 A 
ATOM     13  C   UNL     1     -14.296   1.400  -4.661  0.00  0.00    +0.031 A 
ATOM     14  C   UNL     1     -14.117   0.748  -3.435  0.00  0.00    +0.048 A 
BRANCH   9  15
ATOM     15  O   UNL     1     -14.157  -1.389  -2.215  0.00  0.00    -0.495 OA
ATOM     16  C   UNL     1     -14.431  -2.779  -2.339  0.00  0.00    +0.277 C 
ENDBRANCH   9  15
ENDBRANCH   1  12
BRANCH   5  17
ATOM     17  C   UNL     1     -18.837   0.543  -7.862  0.00  0.00    +0.182 C 
BRANCH  17  18
ATOM     18  O   UNL     1     -20.174   0.594  -8.366  0.00  0.00    -0.393 OA
ATOM     19  H   UNL     1     -20.123   0.952  -9.270  0.00  0.00    +0.209 HD
ENDBRANCH  17  18
ENDBRANCH   5  17
TORSDOF 4
ENDMDL
MODEL 8
REMARK VINA RESULT:      -5.2      9.691     10.858
REMARK  Name = min_compound913.pdb
REMARK  6 active torsions:
REMARK  status: ('A' for Active; 'I' for Inactive)
REMARK    1  A    between atoms: _1  and  _2
REMARK    2  A    between atoms: _1  and  _15
REMARK    3  A    between atoms: _7  and  _8
REMARK    4  A    between atoms: _13  and  _16
REMARK    5  A    between atoms: _13  and  _17
REMARK    6  A    between atoms: _17  and  _18
REMARK                            x       y       z     vdW  Elec       q    Type
REMARK                         _______ _______ _______ _____ _____    ______ ____
ROOT
ATOM      1  N   UNL     1     -17.672   2.125  -8.060  0.00  0.00    -0.226 NA
ATOM      2  C   UNL     1     -17.391   2.906  -9.042  0.00  0.00    +0.155 C 
ATOM      3  S   UNL     1     -18.718   3.439 -10.077  0.00  0.00    -0.088 S 
ATOM      4  C   UNL     1     -17.620   4.484 -11.090  0.00  0.00    +0.104 C 
ATOM      5  C   UNL     1     -16.361   4.701 -10.233  0.00  0.00    +0.063 C 
ATOM      6  C   UNL     1     -15.124   4.870 -11.119  0.00  0.00    +0.035 C 
ATOM      7  N   UNL     1     -16.214   3.480  -9.437  0.00  0.00    -0.315 N 
ATOM      8  H   UNL     1     -15.486   3.520  -8.729  0.00  0.00    +0.149 HD
ENDROOT
BRANCH   1  12
ATOM      9  C   UNL     1     -14.547   1.026  -5.457  0.00  0.00    +0.120 A 
ATOM     10  C   UNL     1     -15.584   1.855  -5.021  0.00  0.00    +0.048 A 
ATOM     11  C   UNL     1     -16.626   2.204  -5.885  0.00  0.00    +0.031 A 
ATOM     12  C   UNL     1     -16.653   1.719  -7.191  0.00  0.00    +0.067 A 
ATOM     13  C   UNL     1     -15.611   0.895  -7.628  0.00  0.00    +0.031 A 
ATOM     14  C   UNL     1     -14.569   0.539  -6.764  0.00  0.00    +0.048 A 
BRANCH   9  15
ATOM     15  O   UNL     1     -13.583   0.772  -4.521  0.00  0.00    -0.495 OA
ATOM     16  C   UNL     1     -13.475   1.698  -3.448  0.00  0.00    +0.277 C 
ENDBRANCH   9  15
ENDBRANCH   1  12
BRANCH   5  17
ATOM     17  C   UNL     1     -16.524   5.916  -9.283  0.00  0.00    +0.182 C 
BRANCH  17  18
ATOM     18  O   UNL     1     -17.156   7.002  -9.966  0.00  0.00    -0.393 OA
ATOM     19  H   UNL     1     -16.485   7.401 -10.547  0.00  0.00    +0.209 HD
ENDBRANCH  17  18
ENDBRANCH   5  17
TORSDOF 4
ENDMDL
MODEL 9
REMARK VINA RESULT:      -5.0      3.969      6.025
REMARK  Name = min_compound913.pdb
REMARK  6 active torsions:
REMARK  status: ('A' for Active; 'I' for Inactive)
REMARK    1  A    between atoms: _1  and  _2
REMARK    2  A    between atoms: _1  and  _15
REMARK    3  A    between atoms: _7  and  _8
REMARK    4  A    between atoms: _13  and  _16
REMARK    5  A    between atoms: _13  and  _17
REMARK    6  A    between atoms: _17  and  _18
REMARK                            x       y       z     vdW  Elec       q    Type
REMARK                         _______ _______ _______ _____ _____    ______ ____
ROOT
ATOM      1  N   UNL     1     -14.573   3.031 -15.539  0.00  0.00    -0.226 NA
ATOM      2  C   UNL     1     -13.325   2.997 -15.844  0.00  0.00    +0.155 C 
ATOM      3  S   UNL     1     -12.711   1.549 -16.646  0.00  0.00    -0.088 S 
ATOM      4  C   UNL     1     -11.034   2.246 -16.804  0.00  0.00    +0.104 C 
ATOM      5  C   UNL     1     -11.206   3.765 -16.633  0.00  0.00    +0.063 C 
ATOM      6  C   UNL     1      -9.956   4.387 -16.007  0.00  0.00    +0.035 C 
ATOM      7  N   UNL     1     -12.333   3.930 -15.712  0.00  0.00    -0.315 N 
ATOM      8  H   UNL     1     -12.646   4.890 -15.593  0.00  0.00    +0.149 HD
ENDROOT
BRANCH   1  12
ATOM      9  C   UNL     1     -16.062   6.558 -13.782  0.00  0.00    +0.120 A 
ATOM     10  C   UNL     1     -16.055   6.398 -15.170  0.00  0.00    +0.048 A 
ATOM     11  C   UNL     1     -15.574   5.219 -15.747  0.00  0.00    +0.031 A 
ATOM     12  C   UNL     1     -15.106   4.180 -14.944  0.00  0.00    +0.067 A 
ATOM     13  C   UNL     1     -15.107   4.346 -13.556  0.00  0.00    +0.031 A 
ATOM     14  C   UNL     1     -15.593   5.523 -12.974  0.00  0.00    +0.048 A 
BRANCH   9  15
ATOM     15  O   UNL     1     -16.544   7.762 -13.347  0.00  0.00    -0.495 OA
ATOM     16  C   UNL     1     -16.993   8.670 -14.345  0.00  0.00    +0.277 C 
ENDBRANCH   9  15
ENDBRANCH   1  12
BRANCH   5  17
ATOM     17  C   UNL     1     -11.542   4.452 -17.983  0.00  0.00    +0.182 C 
BRANCH  17  18
ATOM     18  O   UNL     1     -12.081   5.757 -17.758  0.00  0.00    -0.393 OA
ATOM     19  H   UNL     1     -12.717   5.679 -17.026  0.00  0.00    +0.209 HD
ENDBRANCH  17  18
ENDBRANCH   5  17
TORSDOF 4
ENDMDL
