MODEL 1
REMARK VINA RESULT:      -5.4      0.000      0.000
REMARK  Name = min_compound951.pdb
REMARK  0 active torsions:
REMARK  status: ('A' for Active; 'I' for Inactive)
REMARK                            x       y       z     vdW  Elec       q    Type
REMARK                         _______ _______ _______ _____ _____    ______ ____
ROOT
ATOM      1 CL   UNL     1     -11.987   6.283 -17.429  0.00  0.00    -0.080 Cl
ATOM      2  C   UNL     1     -12.049   4.575 -17.746  0.00  0.00    +0.081 A 
ATOM      3  C   UNL     1     -12.900   4.055 -18.741  0.00  0.00    +0.081 A 
ATOM      4  C   UNL     1     -12.947   2.669 -18.995  0.00  0.00    +0.088 A 
ATOM      5 CL   UNL     1     -13.956   1.946 -20.190  0.00  0.00    -0.080 Cl
ATOM      6  C   UNL     1     -12.123   1.847 -18.226  0.00  0.00    +0.107 A 
ATOM      7  N   UNL     1     -11.912   0.496 -18.197  0.00  0.00    -0.256 N 
ATOM      8  N   UNL     1     -11.007   0.156 -17.270  0.00  0.00    -0.067 NA
ATOM      9  N   UNL     1     -10.606   1.271 -16.674  0.00  0.00    -0.128 NA
ATOM     10  H   UNL     1     -12.337  -0.232 -18.762  0.00  0.00    +0.191 HD
ATOM     11  C   UNL     1     -11.273   2.329 -17.239  0.00  0.00    +0.134 A 
ATOM     12 CL   UNL     1     -13.911   5.121 -19.676  0.00  0.00    -0.080 Cl
ATOM     13  C   UNL     1     -11.236   3.708 -16.997  0.00  0.00    +0.090 A 
ATOM     14 CL   UNL     1     -10.155   4.191 -15.760  0.00  0.00    -0.080 Cl
ENDROOT
TORSDOF 0
ENDMDL
MODEL 2
REMARK VINA RESULT:      -5.1     12.949     13.666
REMARK  Name = min_compound951.pdb
REMARK  0 active torsions:
REMARK  status: ('A' for Active; 'I' for Inactive)
REMARK                            x       y       z     vdW  Elec       q    Type
REMARK                         _______ _______ _______ _____ _____    ______ ____
ROOT
ATOM      1 CL   UNL     1     -14.044  -0.836  -5.618  0.00  0.00    -0.080 Cl
ATOM      2  C   UNL     1     -15.038   0.588  -5.541  0.00  0.00    +0.081 A 
ATOM      3  C   UNL     1     -16.117   0.765  -6.429  0.00  0.00    +0.081 A 
ATOM      4  C   UNL     1     -16.920   1.922  -6.362  0.00  0.00    +0.088 A 
ATOM      5 CL   UNL     1     -18.258   2.223  -7.406  0.00  0.00    -0.080 Cl
ATOM      6  C   UNL     1     -16.601   2.870  -5.390  0.00  0.00    +0.107 A 
ATOM      7  N   UNL     1     -17.145   4.077  -5.044  0.00  0.00    -0.256 N 
ATOM      8  N   UNL     1     -16.486   4.643  -4.024  0.00  0.00    -0.067 NA
ATOM      9  N   UNL     1     -15.502   3.824  -3.680  0.00  0.00    -0.128 NA
ATOM     10  H   UNL     1     -17.940   4.562  -5.448  0.00  0.00    +0.191 HD
ATOM     11  C   UNL     1     -15.544   2.725  -4.500  0.00  0.00    +0.134 A 
ATOM     12 CL   UNL     1     -16.477  -0.446  -7.627  0.00  0.00    -0.080 Cl
ATOM     13  C   UNL     1     -14.755   1.571  -4.578  0.00  0.00    +0.090 A 
ATOM     14 CL   UNL     1     -13.481   1.495  -3.435  0.00  0.00    -0.080 Cl
ENDROOT
TORSDOF 0
ENDMDL
MODEL 3
REMARK VINA RESULT:      -5.1      0.402      3.200
REMARK  Name = min_compound951.pdb
REMARK  0 active torsions:
REMARK  status: ('A' for Active; 'I' for Inactive)
REMARK                            x       y       z     vdW  Elec       q    Type
REMARK                         _______ _______ _______ _____ _____    ______ ____
ROOT
ATOM      1 CL   UNL     1     -13.700   5.377 -19.752  0.00  0.00    -0.080 Cl
ATOM      2  C   UNL     1     -12.737   4.347 -18.735  0.00  0.00    +0.081 A 
ATOM      3  C   UNL     1     -11.816   4.894 -17.819  0.00  0.00    +0.081 A 
ATOM      4  C   UNL     1     -11.037   4.054 -16.997  0.00  0.00    +0.088 A 
ATOM      5 CL   UNL     1      -9.889   4.633 -15.850  0.00  0.00    -0.080 Cl
ATOM      6  C   UNL     1     -11.217   2.677 -17.130  0.00  0.00    +0.107 A 
ATOM      7  N   UNL     1     -10.651   1.595 -16.514  0.00  0.00    -0.256 N 
ATOM      8  N   UNL     1     -11.151   0.442 -16.981  0.00  0.00    -0.067 NA
ATOM      9  N   UNL     1     -12.051   0.743 -17.907  0.00  0.00    -0.128 NA
ATOM     10  H   UNL     1      -9.940   1.567 -15.791  0.00  0.00    +0.191 HD
ATOM     11  C   UNL     1     -12.116   2.108 -18.023  0.00  0.00    +0.134 A 
ATOM     12 CL   UNL     1     -11.626   6.619 -17.688  0.00  0.00    -0.080 Cl
ATOM     13  C   UNL     1     -12.884   2.954 -18.834  0.00  0.00    +0.090 A 
ATOM     14 CL   UNL     1     -13.958   2.147 -19.896  0.00  0.00    -0.080 Cl
ENDROOT
TORSDOF 0
ENDMDL
MODEL 4
REMARK VINA RESULT:      -5.1      2.192      3.541
REMARK  Name = min_compound951.pdb
REMARK  0 active torsions:
REMARK  status: ('A' for Active; 'I' for Inactive)
REMARK                            x       y       z     vdW  Elec       q    Type
REMARK                         _______ _______ _______ _____ _____    ______ ____
ROOT
ATOM      1 CL   UNL     1      -9.949   4.524 -15.483  0.00  0.00    -0.080 Cl
ATOM      2  C   UNL     1     -10.953   3.591 -16.552  0.00  0.00    +0.081 A 
ATOM      3  C   UNL     1     -11.037   2.191 -16.425  0.00  0.00    +0.081 A 
ATOM      4  C   UNL     1     -11.853   1.439 -17.295  0.00  0.00    +0.088 A 
ATOM      5 CL   UNL     1     -12.018  -0.275 -17.214  0.00  0.00    -0.080 Cl
ATOM      6  C   UNL     1     -12.562   2.135 -18.274  0.00  0.00    +0.107 A 
ATOM      7  N   UNL     1     -13.425   1.745 -19.261  0.00  0.00    -0.256 N 
ATOM      8  N   UNL     1     -13.868   2.790 -19.972  0.00  0.00    -0.067 NA
ATOM      9  N   UNL     1     -13.308   3.882 -19.470  0.00  0.00    -0.128 NA
ATOM     10  H   UNL     1     -13.747   0.813 -19.500  0.00  0.00    +0.191 HD
ATOM     11  C   UNL     1     -12.500   3.514 -18.425  0.00  0.00    +0.134 A 
ATOM     12 CL   UNL     1     -10.133   1.365 -15.188  0.00  0.00    -0.080 Cl
ATOM     13  C   UNL     1     -11.686   4.249 -17.553  0.00  0.00    +0.090 A 
ATOM     14 CL   UNL     1     -11.684   5.940 -17.829  0.00  0.00    -0.080 Cl
ENDROOT
TORSDOF 0
ENDMDL
MODEL 5
REMARK VINA RESULT:      -4.9     12.698     13.553
REMARK  Name = min_compound951.pdb
REMARK  0 active torsions:
REMARK  status: ('A' for Active; 'I' for Inactive)
REMARK                            x       y       z     vdW  Elec       q    Type
REMARK                         _______ _______ _______ _____ _____    ______ ____
ROOT
ATOM      1 CL   UNL     1     -16.680   1.876  -8.857  0.00  0.00    -0.080 Cl
ATOM      2  C   UNL     1     -16.788   0.780  -7.511  0.00  0.00    +0.081 A 
ATOM      3  C   UNL     1     -15.643   0.439  -6.764  0.00  0.00    +0.081 A 
ATOM      4  C   UNL     1     -15.737  -0.450  -5.673  0.00  0.00    +0.088 A 
ATOM      5 CL   UNL     1     -14.393  -0.924  -4.705  0.00  0.00    -0.080 Cl
ATOM      6  C   UNL     1     -16.996  -0.968  -5.372  0.00  0.00    +0.107 A 
ATOM      7  N   UNL     1     -17.449  -1.832  -4.413  0.00  0.00    -0.256 N 
ATOM      8  N   UNL     1     -18.768  -2.041  -4.517  0.00  0.00    -0.067 NA
ATOM      9  N   UNL     1     -19.207  -1.322  -5.542  0.00  0.00    -0.128 NA
ATOM     10  H   UNL     1     -16.932  -2.303  -3.678  0.00  0.00    +0.191 HD
ATOM     11  C   UNL     1     -18.143  -0.651  -6.089  0.00  0.00    +0.134 A 
ATOM     12 CL   UNL     1     -14.092   1.111  -7.177  0.00  0.00    -0.080 Cl
ATOM     13  C   UNL     1     -18.036   0.233  -7.170  0.00  0.00    +0.090 A 
ATOM     14 CL   UNL     1     -19.509   0.554  -7.982  0.00  0.00    -0.080 Cl
ENDROOT
TORSDOF 0
ENDMDL
MODEL 6
REMARK VINA RESULT:      -4.9     12.805     13.910
REMARK  Name = min_compound951.pdb
REMARK  0 active torsions:
REMARK  status: ('A' for Active; 'I' for Inactive)
REMARK                            x       y       z     vdW  Elec       q    Type
REMARK                         _______ _______ _______ _____ _____    ______ ____
ROOT
ATOM      1 CL   UNL     1     -16.161  -0.355  -7.868  0.00  0.00    -0.080 Cl
ATOM      2  C   UNL     1     -16.085   0.858  -6.625  0.00  0.00    +0.081 A 
ATOM      3  C   UNL     1     -15.037   0.862  -5.682  0.00  0.00    +0.081 A 
ATOM      4  C   UNL     1     -14.980   1.848  -4.677  0.00  0.00    +0.088 A 
ATOM      5 CL   UNL     1     -13.739   1.931  -3.484  0.00  0.00    -0.080 Cl
ATOM      6  C   UNL     1     -15.994   2.806  -4.657  0.00  0.00    +0.107 A 
ATOM      7  N   UNL     1     -16.253   3.880  -3.850  0.00  0.00    -0.256 N 
ATOM      8  N   UNL     1     -17.367   4.524  -4.224  0.00  0.00    -0.067 NA
ATOM      9  N   UNL     1     -17.859   3.889  -5.280  0.00  0.00    -0.128 NA
ATOM     10  H   UNL     1     -15.731   4.222  -3.050  0.00  0.00    +0.191 HD
ATOM     11  C   UNL     1     -17.039   2.829  -5.571  0.00  0.00    +0.134 A 
ATOM     12 CL   UNL     1     -13.794  -0.354  -5.746  0.00  0.00    -0.080 Cl
ATOM     13  C   UNL     1     -17.084   1.844  -6.566  0.00  0.00    +0.090 A 
ATOM     14 CL   UNL     1     -18.414   1.967  -7.638  0.00  0.00    -0.080 Cl
ENDROOT
TORSDOF 0
ENDMDL
MODEL 7
REMARK VINA RESULT:      -4.8      2.467      2.855
REMARK  Name = min_compound951.pdb
REMARK  0 active torsions:
REMARK  status: ('A' for Active; 'I' for Inactive)
REMARK                            x       y       z     vdW  Elec       q    Type
REMARK                         _______ _______ _______ _____ _____    ______ ____
ROOT
ATOM      1 CL   UNL     1     -13.073   4.458 -16.491  0.00  0.00    -0.080 Cl
ATOM      2  C   UNL     1     -12.400   2.860 -16.619  0.00  0.00    +0.081 A 
ATOM      3  C   UNL     1     -13.178   1.723 -16.320  0.00  0.00    +0.081 A 
ATOM      4  C   UNL     1     -12.627   0.429 -16.426  0.00  0.00    +0.088 A 
ATOM      5 CL   UNL     1     -13.501  -1.016 -16.081  0.00  0.00    -0.080 Cl
ATOM      6  C   UNL     1     -11.298   0.327 -16.834  0.00  0.00    +0.107 A 
ATOM      7  N   UNL     1     -10.460  -0.734 -17.040  0.00  0.00    -0.256 N 
ATOM      8  N   UNL     1      -9.244  -0.336 -17.438  0.00  0.00    -0.067 NA
ATOM      9  N   UNL     1      -9.259   0.989 -17.500  0.00  0.00    -0.128 NA
ATOM     10  H   UNL     1     -10.643  -1.726 -16.933  0.00  0.00    +0.191 HD
ATOM     11  C   UNL     1     -10.506   1.428 -17.135  0.00  0.00    +0.134 A 
ATOM     12 CL   UNL     1     -14.834   1.899 -15.815  0.00  0.00    -0.080 Cl
ATOM     13  C   UNL     1     -11.065   2.708 -17.026  0.00  0.00    +0.090 A 
ATOM     14 CL   UNL     1     -10.001   3.991 -17.422  0.00  0.00    -0.080 Cl
ENDROOT
TORSDOF 0
ENDMDL
MODEL 8
REMARK VINA RESULT:      -4.8     12.649     13.122
REMARK  Name = min_compound951.pdb
REMARK  0 active torsions:
REMARK  status: ('A' for Active; 'I' for Inactive)
REMARK                            x       y       z     vdW  Elec       q    Type
REMARK                         _______ _______ _______ _____ _____    ______ ____
ROOT
ATOM      1 CL   UNL     1     -16.349   3.941  -4.045  0.00  0.00    -0.080 Cl
ATOM      2  C   UNL     1     -16.266   2.435  -4.909  0.00  0.00    +0.081 A 
ATOM      3  C   UNL     1     -17.264   2.080  -5.839  0.00  0.00    +0.081 A 
ATOM      4  C   UNL     1     -17.192   0.857  -6.538  0.00  0.00    +0.088 A 
ATOM      5 CL   UNL     1     -18.364   0.341  -7.691  0.00  0.00    -0.080 Cl
ATOM      6  C   UNL     1     -16.103   0.027  -6.270  0.00  0.00    +0.107 A 
ATOM      7  N   UNL     1     -15.719  -1.196  -6.746  0.00  0.00    -0.256 N 
ATOM      8  N   UNL     1     -14.575  -1.610  -6.183  0.00  0.00    -0.067 NA
ATOM      9  N   UNL     1     -14.187  -0.671  -5.330  0.00  0.00    -0.128 NA
ATOM     10  H   UNL     1     -16.173  -1.789  -7.433  0.00  0.00    +0.191 HD
ATOM     11  C   UNL     1     -15.104   0.349  -5.360  0.00  0.00    +0.134 A 
ATOM     12 CL   UNL     1     -18.604   3.149  -6.141  0.00  0.00    -0.080 Cl
ATOM     13  C   UNL     1     -15.188   1.567  -4.673  0.00  0.00    +0.090 A 
ATOM     14 CL   UNL     1     -13.906   1.861  -3.577  0.00  0.00    -0.080 Cl
ENDROOT
TORSDOF 0
ENDMDL
MODEL 9
REMARK VINA RESULT:      -4.8     12.560     13.128
REMARK  Name = min_compound951.pdb
REMARK  0 active torsions:
REMARK  status: ('A' for Active; 'I' for Inactive)
REMARK                            x       y       z     vdW  Elec       q    Type
REMARK                         _______ _______ _______ _____ _____    ______ ____
ROOT
ATOM      1 CL   UNL     1     -13.945   2.286  -3.532  0.00  0.00    -0.080 Cl
ATOM      2  C   UNL     1     -15.115   1.833  -4.735  0.00  0.00    +0.081 A 
ATOM      3  C   UNL     1     -16.284   2.597  -4.929  0.00  0.00    +0.081 A 
ATOM      4  C   UNL     1     -17.230   2.226  -5.906  0.00  0.00    +0.088 A 
ATOM      5 CL   UNL     1     -18.685   3.098  -6.213  0.00  0.00    -0.080 Cl
ATOM      6  C   UNL     1     -16.960   1.085  -6.662  0.00  0.00    +0.107 A 
ATOM      7  N   UNL     1     -17.633   0.446  -7.667  0.00  0.00    -0.256 N 
ATOM      8  N   UNL     1     -16.971  -0.637  -8.097  0.00  0.00    -0.067 NA
ATOM      9  N   UNL     1     -15.855  -0.731  -7.385  0.00  0.00    -0.128 NA
ATOM     10  H   UNL     1     -18.520   0.684  -8.098  0.00  0.00    +0.191 HD
ATOM     11  C   UNL     1     -15.818   0.312  -6.495  0.00  0.00    +0.134 A 
ATOM     12 CL   UNL     1     -16.578   4.014  -3.962  0.00  0.00    -0.080 Cl
ATOM     13  C   UNL     1     -14.886   0.692  -5.520  0.00  0.00    +0.090 A 
ATOM     14 CL   UNL     1     -13.518  -0.331  -5.400  0.00  0.00    -0.080 Cl
ENDROOT
TORSDOF 0
ENDMDL
